@<TRIPOS>MOLECULE
VG3
   85    87     1     0     0
SMALL
bcc


@<TRIPOS>ATOM
      1 C1           0.0000     0.0000     0.0000 c          1 VG3       0.613700
      2 N2           1.3660     0.0000     0.0000 ns         1 VG3      -0.211900
      3 C3           2.1890     0.0000     1.2250 c3         1 VG3       0.001700
      4 C4           2.9020     1.3590     1.2660 c3         1 VG3       0.172100
      5 C5           3.1780    -1.1920     1.1940 c3         1 VG3       0.027900
      6 O6          -0.6490     0.3240     1.0020 o          1 VG3      -0.617100
      7 C7          -0.6090    -0.4010    -1.2790 ca         1 VG3      -0.195600
      8 C8          -0.2150    -1.5950    -1.9550 ca         1 VG3      -0.020000
      9 C9          -0.8100    -1.9480    -3.1920 ca         1 VG3      -0.139000
     10 C10         -1.7970    -1.1170    -3.7670 ca         1 VG3       0.016000
     11 C11         -2.1960     0.0680    -3.1040 ca         1 VG3      -0.160500
     12 C12         -1.6060     0.4310    -1.8640 ca         1 VG3       0.069000
     13 C13          2.5360    -2.5140     0.8310 ca         1 VG3      -0.097300
     14 C14          3.0370    -3.2830    -0.2560 ca         1 VG3      -0.100000
     15 C15          2.4350    -4.5190    -0.5990 ca         1 VG3      -0.099000
     16 C16          1.3270    -4.9950     0.1420 ca         1 VG3      -0.105000
     17 C17          0.8200    -4.2360     1.2260 ca         1 VG3      -0.099000
     18 C18          1.4210    -3.0030     1.5690 ca         1 VG3      -0.100000
     19 O19          3.7380     1.4860     2.3900 oh         1 VG3      -0.580800
     20 C20          1.9830     4.8540     2.3590 c3         1 VG3       0.065500
     21 C21          1.9010     2.5270     1.2920 c3         1 VG3       0.134800
     22 N22          2.6060     3.7660     1.5850 n7         1 VG3      -0.600200
     23 S23         -3.4250     1.1060    -3.8540 sy         1 VG3       0.850300
     24 C24          0.7870     5.4410     1.5790 c3         1 VG3       0.009900
     25 C38          1.5230     4.3460     3.7580 c          1 VG3       0.543100
     26 N39          2.5090     4.4200     4.6710 ns         1 VG3      -0.184900
     27 C40          2.3660     3.9450     6.0500 c3         1 VG3       0.008700
     28 O41          0.3870     3.9150     3.9660 o          1 VG3      -0.624100
     29 C43          2.1010     5.1550     6.9740 c3         1 VG3      -0.031900
     30 C44          1.9770     4.6670     8.4720 c3         1 VG3      -0.012400
     31 C45          3.2020     3.8380     8.9350 c3         1 VG3      -0.020400
     32 C46          3.5360     2.6890     7.9450 c3         1 VG3      -0.012400
     33 C47          3.6480     3.1970     6.4820 c3         1 VG3      -0.031900
     34 C60         -4.8730     0.0570    -3.9020 c3         1 VG3      -0.005600
     35 C61         -6.0290     0.8280    -4.5540 c3         1 VG3       0.002600
     36 C64         -7.3220     0.0090    -4.6620 c3         1 VG3      -0.023400
     37 C67         -8.4560     0.8060    -5.3240 c3         1 VG3      -0.024400
     38 C70         -9.7520    -0.0080    -5.4370 c3         1 VG3       0.011900
     39 O76         -3.0120     1.3600    -5.2090 o          1 VG3      -0.578300
     40 O77         -3.6560     2.2240    -2.9930 o          1 VG3      -0.578300
     41 H2           1.8360     0.0010    -0.8830 hn         1 VG3       0.176500
     42 H3           1.5440    -0.0920     2.0900 h1         1 VG3       0.075700
     43 H4           3.5120     1.4520     0.3750 h1         1 VG3      -0.002300
     44 H5C1         3.9560    -0.9760     0.4720 hc         1 VG3       0.022200
     45 H5C2         3.6330    -1.2880     2.1730 hc         1 VG3       0.022200
     46 H19          4.6320     1.3230     2.1380 ho         1 VG3       0.393000
     47 H211         1.4150     2.6070     0.3280 h1         1 VG3       0.038200
     48 H212         1.1560     2.3460     2.0580 h1         1 VG3       0.038200
     49 H8           0.5420    -2.2360    -1.5190 ha         1 VG3       0.115000
     50 H12         -1.9160     1.3400    -1.3620 ha         1 VG3       0.142000
     51 H9          -0.5050    -2.8550    -3.6990 ha         1 VG3       0.113000
     52 H10         -2.2510    -1.3890    -4.7130 ha         1 VG3       0.110000
     53 H14          3.8850    -2.9210    -0.8250 ha         1 VG3       0.110500
     54 H18          1.0300    -2.4260     2.3980 ha         1 VG3       0.110500
     55 H15          2.8230    -5.0990    -1.4280 ha         1 VG3       0.106500
     56 H16          0.8670    -5.9400    -0.1200 ha         1 VG3       0.105000
     57 H17         -0.0280    -4.6010     1.7920 ha         1 VG3       0.106500
     58 H20          2.7170     5.6380     2.5030 h1         1 VG3       0.026700
     59 H22          3.5060     3.5550     1.9700 hn         1 VG3       0.261800
     60 H241         1.0890     5.6300     0.5560 hc         1 VG3       0.015033
     61 H242         0.4580     6.3660     2.0360 hc         1 VG3       0.015033
     62 H243        -0.0250     4.7240     1.5890 hc         1 VG3       0.015033
     63 H601        -5.1490    -0.2250    -2.8930 h1         1 VG3       0.065700
     64 H602        -4.6580    -0.8320    -4.4810 h1         1 VG3       0.065700
     65 H39          3.3840     4.8200     4.3950 hn         1 VG3       0.172500
     66 H40          1.5250     3.2650     6.1100 h1         1 VG3       0.062700
     67 H431         2.9240     5.8550     6.8930 hc         1 VG3       0.016700
     68 H432         1.1790     5.6390     6.6770 hc         1 VG3       0.016700
     69 H471         4.4930     3.8700     6.4050 hc         1 VG3       0.016700
     70 H472         3.8020     2.3500     5.8250 hc         1 VG3       0.016700
     71 H441         1.8800     5.5340     9.1140 hc         1 VG3       0.012200
     72 H442         1.0870     4.0550     8.5660 hc         1 VG3       0.012200
     73 H451         4.0600     4.4950     9.0120 hc         1 VG3       0.010700
     74 H452         2.9900     3.4120     9.9080 hc         1 VG3       0.010700
     75 H461         4.4790     2.2410     8.2330 hc         1 VG3       0.012200
     76 H462         2.7540     1.9420     7.9980 hc         1 VG3       0.012200
     77 H611        -6.2290     1.7160    -3.9670 hc         1 VG3       0.030700
     78 H612        -5.7260     1.1300    -5.5500 hc         1 VG3       0.030700
     79 H641        -7.1280    -0.8800    -5.2480 hc         1 VG3       0.010700
     80 H642        -7.6350    -0.2860    -3.6670 hc         1 VG3       0.010700
     81 H671        -8.1420     1.1040    -6.3170 hc         1 VG3       0.012200
     82 H672        -8.6500     1.6950    -4.7360 hc         1 VG3       0.012200
     83 H701       -10.0820    -0.3010    -4.4480 hc         1 VG3       0.000367
     84 H702       -10.5180     0.5970    -5.9080 hc         1 VG3       0.000367
     85 H703        -9.5720    -0.8930    -6.0350 hc         1 VG3       0.000367
@<TRIPOS>BOND
     1     1     2 1   
     2     1     6 2   
     3     1     7 1   
     4     2     3 1   
     5     2    41 1   
     6     3     4 1   
     7     3     5 1   
     8     3    42 1   
     9     4    19 1   
    10     4    21 1   
    11     4    43 1   
    12     5    13 1   
    13     5    44 1   
    14     5    45 1   
    15     7     8 ar  
    16     7    12 ar  
    17     8     9 ar  
    18     8    49 1   
    19     9    10 ar  
    20     9    51 1   
    21    10    11 ar  
    22    10    52 1   
    23    11    12 ar  
    24    11    23 1   
    25    12    50 1   
    26    13    14 ar  
    27    13    18 ar  
    28    14    15 ar  
    29    14    53 1   
    30    15    16 ar  
    31    15    55 1   
    32    16    17 ar  
    33    16    56 1   
    34    17    18 ar  
    35    17    57 1   
    36    18    54 1   
    37    19    46 1   
    38    20    22 1   
    39    20    24 1   
    40    20    25 1   
    41    20    58 1   
    42    21    22 1   
    43    21    47 1   
    44    21    48 1   
    45    22    59 1   
    46    23    34 1   
    47    23    39 2   
    48    23    40 2   
    49    24    60 1   
    50    24    61 1   
    51    24    62 1   
    52    25    26 1   
    53    25    28 2   
    54    26    27 1   
    55    26    65 1   
    56    27    29 1   
    57    27    33 1   
    58    27    66 1   
    59    29    30 1   
    60    29    67 1   
    61    29    68 1   
    62    30    31 1   
    63    30    71 1   
    64    30    72 1   
    65    31    32 1   
    66    31    73 1   
    67    31    74 1   
    68    32    33 1   
    69    32    75 1   
    70    32    76 1   
    71    33    69 1   
    72    33    70 1   
    73    34    35 1   
    74    34    63 1   
    75    34    64 1   
    76    35    36 1   
    77    35    77 1   
    78    35    78 1   
    79    36    37 1   
    80    36    79 1   
    81    36    80 1   
    82    37    38 1   
    83    37    81 1   
    84    37    82 1   
    85    38    83 1   
    86    38    84 1   
    87    38    85 1   
@<TRIPOS>SUBSTRUCTURE
     1 VG3         1 TEMP              0 ****  ****    0 ROOT
