@<TRIPOS>MOLECULE
VG4
   86    89     1     0     0
SMALL
bcc


@<TRIPOS>ATOM
      1 C1           0.0000     0.0000     0.0000 ca         1 VG4      -0.072400
      2 C2           1.4250     0.0000     0.0000 ca         1 VG4      -0.081000
      3 C3           2.1380     0.0000     1.2170 ca         1 VG4      -0.106600
      4 C4           1.4150     0.0030     2.4450 ca         1 VG4      -0.184000
      5 C5          -0.0150    -0.0010     2.4660 ca         1 VG4       0.153100
      6 C6          -0.6970     0.0010     1.2340 ca         1 VG4      -0.097000
      7 C7           3.6040     0.0200     1.2940 c          1 VG4       0.600700
      8 N8           4.1800    -0.7870     2.2360 ns         1 VG4      -0.199900
      9 O9           4.2890     0.7570     0.5780 o          1 VG4      -0.632100
     10 C10          5.6420    -0.7990     2.4590 c3         1 VG4      -0.006300
     11 C11          5.8990    -0.7170     3.9900 c3         1 VG4       0.030900
     12 C12          6.2960    -2.0450     1.8270 c3         1 VG4       0.191100
     13 O13          7.6750    -2.0760     2.1480 oh         1 VG4      -0.564800
     14 C14          4.9650     0.2340     4.7270 ca         1 VG4      -0.096300
     15 C15          6.1720    -2.0370     0.3000 c3         1 VG4       0.128800
     16 N16          7.1050    -2.9850    -0.2910 n7         1 VG4      -0.584200
     17 C17          7.7090    -2.7960    -1.6210 c3         1 VG4       0.060500
     18 C18          8.5490    -1.5010    -1.5790 c          1 VG4       0.581100
     19 N19          9.7810    -1.6880    -1.0730 ns         1 VG4      -0.159900
     20 O20          8.0950    -0.4250    -1.9670 o          1 VG4      -0.640100
     21 C21         10.7420    -0.5950    -0.9260 c3         1 VG4       0.004700
     22 C22          6.6140    -2.7040    -2.7090 c3         1 VG4      -0.022100
     23 C23         11.7010    -0.5650    -2.1420 c3         1 VG4      -0.032900
     24 C24         12.7290     0.5840    -1.9950 c3         1 VG4      -0.013400
     25 C25         13.5150     0.4850    -0.6560 c3         1 VG4      -0.021400
     26 C26         12.5670     0.3790     0.5670 c3         1 VG4      -0.013400
     27 C27         11.5380    -0.7660     0.3930 c3         1 VG4      -0.032900
     28 C56          4.2740    -0.2210     5.8780 ca         1 VG4      -0.102000
     29 C57          3.3940     0.6420     6.5840 ca         1 VG4      -0.101000
     30 C58          3.1970     1.9740     6.1440 ca         1 VG4      -0.107000
     31 C59          3.8820     2.4430     4.9980 ca         1 VG4      -0.101000
     32 C60          4.7610     1.5790     4.2970 ca         1 VG4      -0.102000
     33 O66         -0.6890     0.0030     3.7180 os         1 VG4      -0.314900
     34 C67          0.0320    -0.3180     4.9110 c3         1 VG4       0.201400
     35 C68         -0.0450    -1.8280     5.1470 c3         1 VG4      -0.069400
     36 C71          0.7270    -2.2470     6.3880 c3         1 VG4       0.010900
     37 N77         -0.7030     0.0120    -1.1790 n          1 VG4       0.103800
     38 C78         -0.4620     1.0640    -2.1710 c2         1 VG4      -0.148400
     39 C79         -1.4110     0.7680    -3.3190 c2         1 VG4      -0.186200
     40 C80         -2.2270    -0.4610    -2.9210 c3         1 VG4      -0.090200
     41 C81         -1.6760    -0.8630    -1.5560 c          1 VG4       0.611500
     42 O88         -2.0910    -1.8340    -0.9320 o          1 VG4      -0.644500
     43 H2           1.9640    -0.0010    -0.9400 ha         1 VG4       0.122000
     44 H6          -1.7800    -0.0010     1.2290 ha         1 VG4       0.127000
     45 H4           1.9600     0.0030     3.3810 ha         1 VG4       0.129000
     46 H8           3.5980    -1.3870     2.7860 hn         1 VG4       0.179500
     47 H10          6.0660     0.0830     1.9940 h1         1 VG4       0.077700
     48 H111         6.9200    -0.3910     4.1500 hc         1 VG4       0.023700
     49 H112         5.7840    -1.7090     4.4120 hc         1 VG4       0.023700
     50 H12          5.8190    -2.9360     2.2180 h1         1 VG4      -0.011300
     51 H13          7.8520    -2.8160     2.7040 ho         1 VG4       0.385000
     52 H151         5.1610    -2.3090     0.0220 h1         1 VG4       0.031700
     53 H152         6.3890    -1.0430    -0.0710 h1         1 VG4       0.031700
     54 H56          4.4180    -1.2380     6.2220 ha         1 VG4       0.111500
     55 H60          5.2830     1.9440     3.4200 ha         1 VG4       0.111500
     56 H16          6.7280    -3.9100    -0.2240 hn         1 VG4       0.243800
     57 H17          8.3590    -3.6350    -1.8400 h1         1 VG4       0.031700
     58 H221         5.9240    -3.5320    -2.5980 hc         1 VG4       0.015033
     59 H222         6.0760    -1.7690    -2.6020 hc         1 VG4       0.015033
     60 H223         7.0740    -2.7450    -3.6890 hc         1 VG4       0.015033
     61 H19         10.0500    -2.6080    -0.7870 hn         1 VG4       0.175500
     62 H21         10.2050     0.3450    -0.8870 h1         1 VG4       0.060700
     63 H231        12.2280    -1.5090    -2.2030 hc         1 VG4       0.017200
     64 H232        11.1240    -0.4130    -3.0470 hc         1 VG4       0.017200
     65 H271        10.8480    -0.7520     1.2280 hc         1 VG4       0.017200
     66 H272        12.0620    -1.7140     0.3720 hc         1 VG4       0.017200
     67 H241        13.4310     0.5350    -2.8190 hc         1 VG4       0.013450
     68 H242        12.2050     1.5310    -2.0260 hc         1 VG4       0.013450
     69 H251        14.1320     1.3690    -0.5460 hc         1 VG4       0.010200
     70 H252        14.1500    -0.3920    -0.6860 hc         1 VG4       0.010200
     71 H261        12.0360     1.3150     0.6830 hc         1 VG4       0.013450
     72 H262        13.1580     0.1890     1.4550 hc         1 VG4       0.013450
     73 H57          2.8720     0.2800     7.4620 ha         1 VG4       0.106500
     74 H58          2.5250     2.6320     6.6830 ha         1 VG4       0.106000
     75 H59          3.7360     3.4610     4.6570 ha         1 VG4       0.106500
     76 H671         1.0670    -0.0200     4.8000 h1         1 VG4       0.020700
     77 H672        -0.4080     0.2040     5.7520 h1         1 VG4       0.020700
     78 H681         0.3670    -2.3410     4.2860 hc         1 VG4       0.023700
     79 H682        -1.0830    -2.1140     5.2650 hc         1 VG4       0.023700
     80 H711         0.6760    -1.4580     7.1290 hc         1 VG4       0.002033
     81 H712         1.7620    -2.4290     6.1260 hc         1 VG4       0.002033
     82 H713         0.2930    -3.1530     6.7950 hc         1 VG4       0.002033
     83 H78          0.5490     1.3940    -2.3760 h4         1 VG4       0.151000
     84 H79         -1.8850     1.5830    -3.8540 ha         1 VG4       0.129000
     85 H801        -2.0780    -1.2600    -3.6370 hc         1 VG4       0.057700
     86 H802        -3.2770    -0.2060    -2.8430 hc         1 VG4       0.057700
@<TRIPOS>BOND
     1     1     2 ar  
     2     1     6 ar  
     3     1    37 1   
     4     2     3 ar  
     5     2    43 1   
     6     3     4 ar  
     7     3     7 1   
     8     4     5 ar  
     9     4    45 1   
    10     5     6 ar  
    11     5    33 1   
    12     6    44 1   
    13     7     8 1   
    14     7     9 2   
    15     8    10 1   
    16     8    46 1   
    17    10    11 1   
    18    10    12 1   
    19    10    47 1   
    20    11    14 1   
    21    11    48 1   
    22    11    49 1   
    23    12    13 1   
    24    12    15 1   
    25    12    50 1   
    26    13    51 1   
    27    14    28 ar  
    28    14    32 ar  
    29    15    16 1   
    30    15    52 1   
    31    15    53 1   
    32    16    17 1   
    33    16    56 1   
    34    17    18 1   
    35    17    22 1   
    36    17    57 1   
    37    18    19 1   
    38    18    20 2   
    39    19    21 1   
    40    19    61 1   
    41    21    23 1   
    42    21    27 1   
    43    21    62 1   
    44    22    58 1   
    45    22    59 1   
    46    22    60 1   
    47    23    24 1   
    48    23    63 1   
    49    23    64 1   
    50    24    25 1   
    51    24    67 1   
    52    24    68 1   
    53    25    26 1   
    54    25    69 1   
    55    25    70 1   
    56    26    27 1   
    57    26    71 1   
    58    26    72 1   
    59    27    65 1   
    60    27    66 1   
    61    28    29 ar  
    62    28    54 1   
    63    29    30 ar  
    64    29    73 1   
    65    30    31 ar  
    66    30    74 1   
    67    31    32 ar  
    68    31    75 1   
    69    32    55 1   
    70    33    34 1   
    71    34    35 1   
    72    34    76 1   
    73    34    77 1   
    74    35    36 1   
    75    35    78 1   
    76    35    79 1   
    77    36    80 1   
    78    36    81 1   
    79    36    82 1   
    80    37    38 1   
    81    37    41 1   
    82    38    39 2   
    83    38    83 1   
    84    39    40 1   
    85    39    84 1   
    86    40    41 1   
    87    40    85 1   
    88    40    86 1   
    89    41    42 2   
@<TRIPOS>SUBSTRUCTURE
     1 VG4         1 TEMP              0 ****  ****    0 ROOT
