@<TRIPOS>MOLECULE
molecule
   86    89     1     0     0
SMALL
bcc


@<TRIPOS>ATOM
      1 C1           0.0000     0.0000     0.0000 ca         1 VG5       0.109600
      2 C2           1.3870     0.0000     0.0000 ca         1 VG5      -0.172000
      3 C3           2.0820     0.0000     1.2100 ca         1 VG5      -0.077600
      4 C4           1.3790     0.0010     2.4140 ca         1 VG5      -0.218000
      5 C5          -0.0080     0.0000     2.4060 ca         1 VG5       0.219600
      6 C6          -0.6970     0.0000     1.2000 ca         1 VG5      -0.224000
      7 C7           3.5610    -0.0000     1.2140 c          1 VG5       0.672700
      8 N8           4.2320    -0.0000     2.3830 ns         1 VG5      -0.578900
      9 O9           4.1720    -0.0010     0.1630 o          1 VG5      -0.599100
     10 C10          5.6960    -0.0010     2.3870 c3         1 VG5       0.117700
     11 C11          6.2070     1.4350     2.2630 c3         1 VG5      -0.045100
     12 C12          6.2020    -0.6110     3.6960 c3         1 VG5       0.135100
     13 O13          5.8210     0.2260     4.7900 oh         1 VG5      -0.595800
     14 C14          5.8130     1.9940     0.9200 ca         1 VG5      -0.068300
     15 C15          7.7270    -0.7260     3.6490 c3         1 VG5       0.139800
     16 N16          8.2030    -1.4200     4.8540 n7         1 VG5      -0.800200
     17 C17          9.6660    -1.5490     4.8430 c3         1 VG5       0.091500
     18 C18         10.0730    -2.7280     5.6900 c          1 VG5       0.657100
     19 N19         11.3760    -3.0410     5.8270 ns         1 VG5      -0.580900
     20 O20          9.2260    -3.3950     6.2470 o          1 VG5      -0.607100
     21 C21         11.7710    -4.1870     6.6500 c3         1 VG5       0.116700
     22 C22         10.2950    -0.2740     5.4080 c3         1 VG5      -0.089100
     23 C23         13.2000    -3.9840     7.1560 c3         1 VG5      -0.093900
     24 C24         13.6130    -5.1800     8.0150 c3         1 VG5      -0.076400
     25 C25         13.5460    -6.4580     7.1760 c3         1 VG5      -0.083400
     26 C26         12.1160    -6.6620     6.6710 c3         1 VG5      -0.076400
     27 C27         11.7040    -5.4650     5.8120 c3         1 VG5      -0.093900
     28 C56          4.6080     2.6550     0.7730 ca         1 VG5      -0.116000
     29 C57          4.2460     3.1680    -0.4580 ca         1 VG5      -0.121000
     30 C58          5.0890     3.0200    -1.5440 ca         1 VG5      -0.130000
     31 C59          6.2950     2.3600    -1.3970 ca         1 VG5      -0.121000
     32 C60          6.6580     1.8510    -0.1640 ca         1 VG5      -0.116000
     33 N1          -0.7120     0.0010     3.6130 nu         1 VG5      -0.826600
     34 C67          0.0140     0.0010     4.8850 c3         1 VG5       0.234800
     35 C68         -0.9870     0.0010     6.0430 c3         1 VG5      -0.109100
     36 N77         -0.6980     0.0060    -1.2130 n          1 VG5      -0.378000
     37 C78         -0.0680     0.1350    -2.5320 c3         1 VG5       0.092000
     38 C79         -1.2070     0.5260    -3.4980 c3         1 VG5      -0.099400
     39 C80         -2.4460    -0.0510    -2.7750 c3         1 VG5      -0.169400
     40 C81         -2.0340    -0.1110    -1.3200 c          1 VG5       0.706500
     41 O88         -2.7970    -0.2440    -0.3870 o          1 VG5      -0.622500
     42 H2           1.9290    -0.0000    -0.9380 ha         1 VG5       0.155000
     43 H6          -1.7800     0.0000     1.1970 ha         1 VG5       0.183000
     44 H4           1.9160     0.0010     3.3550 ha         1 VG5       0.125000
     45 H1          -1.7130     0.0020     3.6080 hn         1 VG5       0.444800
     46 H8           3.7290    -0.0350     3.2470 hn         1 VG5       0.318500
     47 H10          6.0590    -0.5880     1.5520 h1         1 VG5       0.084700
     48 H111         5.7740     2.0420     3.0480 hc         1 VG5       0.060200
     49 H112         7.2870     1.4430     2.3540 hc         1 VG5       0.060200
     50 H12          5.7690    -1.5950     3.8270 h1         1 VG5       0.040700
     51 H13          5.3980    -0.2950     5.4520 ho         1 VG5       0.407000
     52 H151         8.1630     0.2650     3.6070 h1         1 VG5       0.044700
     53 H152         8.0200    -1.2870     2.7700 h1         1 VG5       0.044700
     54 H56          3.9470     2.7720     1.6230 ha         1 VG5       0.123500
     55 H60          7.6030     1.3330    -0.0490 ha         1 VG5       0.123500
     56 H16          7.7880    -2.3290     4.9010 hn         1 VG5       0.373800
     57 H17         10.0070    -1.7000     3.8260 h1         1 VG5       0.037700
     58 H221        10.9360     0.1750     4.6590 hc         1 VG5       0.048367
     59 H222         9.5140     0.4250     5.6800 hc         1 VG5       0.048367
     60 H223        10.8820    -0.5190     6.2850 hc         1 VG5       0.048367
     61 H19         12.0710    -2.5180     5.3320 hn         1 VG5       0.313500
     62 H21         11.1000    -4.2770     7.4960 h1         1 VG5       0.083700
     63 H231        13.8720    -3.8990     6.3100 hc         1 VG5       0.046950
     64 H232        13.2460    -3.0800     7.7510 hc         1 VG5       0.046950
     65 H271        10.6900    -5.6090     5.4560 hc         1 VG5       0.046950
     66 H272        12.3780    -5.3770     4.9680 hc         1 VG5       0.046950
     67 H241        14.6260    -5.0350     8.3710 hc         1 VG5       0.045450
     68 H242        12.9380    -5.2670     8.8580 hc         1 VG5       0.045450
     69 H251        14.2170    -6.3690     6.3310 hc         1 VG5       0.042200
     70 H252        13.8350    -7.3050     7.7870 hc         1 VG5       0.042200
     71 H261        11.4440    -6.7470     7.5160 hc         1 VG5       0.045450
     72 H262        12.0710    -7.5650     6.0740 hc         1 VG5       0.045450
     73 H57          3.3010     3.6860    -0.5730 ha         1 VG5       0.122500
     74 H58          4.8050     3.4200    -2.5100 ha         1 VG5       0.121000
     75 H59          6.9570     2.2450    -2.2470 ha         1 VG5       0.122500
     76 H671         0.6360     0.8850     4.9460 h1         1 VG5       0.035700
     77 H672         0.6360    -0.8840     4.9460 h1         1 VG5       0.035700
     78 H681        -0.4500     0.0030     6.9840 hc         1 VG5       0.044367
     79 H682        -1.6110     0.8840     5.9810 hc         1 VG5       0.044367
     80 H683        -1.6080    -0.8850     5.9840 hc         1 VG5       0.044367
     81 H78          0.6870     0.9110    -2.5110 h1         1 VG5       0.059700
     82 H79         -1.0720     0.0550    -4.4640 hc         1 VG5       0.061700
     83 H801        -3.2970     0.6090    -2.8980 hc         1 VG5       0.079700
     84 H802        -2.6710    -1.0440    -3.1450 hc         1 VG5       0.079700
     85 H7A          0.3680    -0.8110    -2.8310 h1         1 VG5       0.059700
     86 H7B         -1.2810     1.6030    -3.5900 hc         1 VG5       0.061700
@<TRIPOS>BOND
     1     1     2 ar
     2     1     6 ar
     3     1    36 1
     4     2     3 ar
     5     3     4 ar
     6     3     7 1
     7     4     5 ar
     8     5     6 ar
     9     5    33 1
    10     7     8 1
    11     7     9 2
    12     8    10 1
    13    10    11 1
    14    10    12 1
    15    11    14 1
    16    12    13 1
    17    12    15 1
    18    14    28 ar
    19    14    32 ar
    20    15    16 1
    21    16    17 1
    22    17    18 1
    23    17    22 1
    24    18    19 1
    25    18    20 2
    26    19    21 1
    27    21    23 1
    28    21    27 1
    29    23    24 1
    30    24    25 1
    31    25    26 1
    32    26    27 1
    33    28    29 ar
    34    29    30 ar
    35    30    31 ar
    36    31    32 ar
    37    33    34 1
    38    34    35 1
    39    36    37 1
    40    36    40 1
    41    37    38 1
    42    38    39 1
    43    39    40 1
    44    40    41 2
    45     2    42 1
    46     6    43 1
    47     4    44 1
    48    33    45 1
    49     8    46 1
    50    10    47 1
    51    11    48 1
    52    11    49 1
    53    12    50 1
    54    13    51 1
    55    15    52 1
    56    15    53 1
    57    28    54 1
    58    32    55 1
    59    16    56 1
    60    17    57 1
    61    22    58 1
    62    22    59 1
    63    22    60 1
    64    19    61 1
    65    21    62 1
    66    23    63 1
    67    23    64 1
    68    27    65 1
    69    27    66 1
    70    24    67 1
    71    24    68 1
    72    25    69 1
    73    25    70 1
    74    26    71 1
    75    26    72 1
    76    29    73 1
    77    30    74 1
    78    31    75 1
    79    34    76 1
    80    34    77 1
    81    35    78 1
    82    35    79 1
    83    35    80 1
    84    37    81 1
    85    37    85 1
    86    38    82 1
    87    38    86 1
    88    39    83 1
    89    39    84 1
@<TRIPOS>SUBSTRUCTURE
     1 VG5         1 TEMP              0 ****  ****    0 ROOT
