@<TRIPOS>MOLECULE
VG5
   86    89     1     0     0
SMALL
bcc


@<TRIPOS>ATOM
      1 C1           0.0000     0.0000     0.0000 ca         1 VG5      -0.024400
      2 C2           1.3870     0.0000     0.0000 ca         1 VG5      -0.152000
      3 C3           2.0820     0.0000     1.2100 ca         1 VG5      -0.077600
      4 C4           1.3790     0.0010     2.4140 ca         1 VG5      -0.210000
      5 C5          -0.0080     0.0000     2.4060 ca         1 VG5       0.089600
      6 C6          -0.6970     0.0000     1.2000 ca         1 VG5      -0.217000
      7 C7           3.5610    -0.0000     1.2140 c          1 VG5       0.593700
      8 N8           4.2320    -0.0000     2.3830 ns         1 VG5      -0.192900
      9 O9           4.1720    -0.0010     0.1630 o          1 VG5      -0.643100
     10 C10          5.6960    -0.0010     2.3870 c3         1 VG5       0.008700
     11 C11          6.2070     1.4350     2.2630 c3         1 VG5       0.011900
     12 C12          6.2020    -0.6110     3.6960 c3         1 VG5       0.181100
     13 O13          5.8210     0.2260     4.7900 oh         1 VG5      -0.576800
     14 C14          5.8130     1.9940     0.9200 ca         1 VG5      -0.075300
     15 C15          7.7270    -0.7260     3.6490 c3         1 VG5       0.110800
     16 N16          8.2030    -1.4200     4.8540 n7         1 VG5      -0.566200
     17 C17          9.6660    -1.5490     4.8430 c3         1 VG5       0.047500
     18 C18         10.0730    -2.7280     5.6900 c          1 VG5       0.571100
     19 N19         11.3760    -3.0410     5.8270 ns         1 VG5      -0.185900
     20 O20          9.2260    -3.3950     6.2470 o          1 VG5      -0.644100
     21 C21         11.7710    -4.1870     6.6500 c3         1 VG5       0.015700
     22 C22         10.2950    -0.2740     5.4080 c3         1 VG5      -0.001100
     23 C23         13.2000    -3.9840     7.1560 c3         1 VG5      -0.039900
     24 C24         13.6130    -5.1800     8.0150 c3         1 VG5      -0.016900
     25 C25         13.5460    -6.4580     7.1760 c3         1 VG5      -0.028400
     26 C26         12.1160    -6.6620     6.6710 c3         1 VG5      -0.016900
     27 C27         11.7040    -5.4650     5.8120 c3         1 VG5      -0.039900
     28 C56          4.6080     2.6550     0.7730 ca         1 VG5      -0.092000
     29 C57          4.2460     3.1680    -0.4580 ca         1 VG5      -0.092500
     30 C58          5.0890     3.0200    -1.5440 ca         1 VG5      -0.104000
     31 C59          6.2950     2.3600    -1.3970 ca         1 VG5      -0.092500
     32 C60          6.6580     1.8510    -0.1640 ca         1 VG5      -0.092000
     33 N1          -0.7120     0.0010     3.6130 nu         1 VG5      -0.430600
     34 C67          0.0140     0.0010     4.8850 c3         1 VG5       0.165800
     35 C68         -0.9870     0.0010     6.0430 c3         1 VG5      -0.003100
     36 N77         -0.6980     0.0060    -1.2130 n          1 VG5       0.012000
     37 C78         -0.0680     0.1350    -2.5320 c3         1 VG5       0.027000
     38 C79         -1.2070     0.5260    -3.4980 c3         1 VG5      -0.030400
     39 C80         -2.4460    -0.0510    -2.7750 c3         1 VG5      -0.115400
     40 C81         -2.0340    -0.1110    -1.3200 c          1 VG5       0.622500
     41 O88         -2.7970    -0.2440    -0.3870 o          1 VG5      -0.663500
     42 H2           1.9290    -0.0000    -0.9380 ha         1 VG5       0.136000
     43 H6          -1.7800     0.0000     1.1970 ha         1 VG5       0.173000
     44 H4           1.9160     0.0010     3.3550 ha         1 VG5       0.114000
     45 H1          -1.7130     0.0020     3.6080 hn         1 VG5       0.300800
     46 H8           3.7290    -0.0350     3.2470 hn         1 VG5       0.182500
     47 H10          6.0590    -0.5880     1.5520 h1         1 VG5       0.062700
     48 H111         5.7740     2.0420     3.0480 hc         1 VG5       0.032700
     49 H112         7.2870     1.4430     2.3540 hc         1 VG5       0.032700
     50 H12          5.7690    -1.5950     3.8270 h1         1 VG5       0.005700
     51 H13          5.3980    -0.2950     5.4520 ho         1 VG5       0.394000
     52 H151         8.1630     0.2650     3.6070 h1         1 VG5       0.021200
     53 H152         8.0200    -1.2870     2.7700 h1         1 VG5       0.021200
     54 H56          3.9470     2.7720     1.6230 ha         1 VG5       0.099500
     55 H60          7.6030     1.3330    -0.0490 ha         1 VG5       0.099500
     56 H16          7.7880    -2.3290     4.9010 hn         1 VG5       0.277800
     57 H17         10.0070    -1.7000     3.8260 h1         1 VG5       0.017700
     58 H221        10.9360     0.1750     4.6590 hc         1 VG5       0.013700
     59 H222         9.5140     0.4250     5.6800 hc         1 VG5       0.013700
     60 H223        10.8820    -0.5190     6.2850 hc         1 VG5       0.013700
     61 H19         12.0710    -2.5180     5.3320 hn         1 VG5       0.174500
     62 H21         11.1000    -4.2770     7.4960 h1         1 VG5       0.062700
     63 H231        13.8720    -3.8990     6.3100 hc         1 VG5       0.019700
     64 H232        13.2460    -3.0800     7.7510 hc         1 VG5       0.019700
     65 H271        10.6900    -5.6090     5.4560 hc         1 VG5       0.019700
     66 H272        12.3780    -5.3770     4.9680 hc         1 VG5       0.019700
     67 H241        14.6260    -5.0350     8.3710 hc         1 VG5       0.016950
     68 H242        12.9380    -5.2670     8.8580 hc         1 VG5       0.016950
     69 H251        14.2170    -6.3690     6.3310 hc         1 VG5       0.014200
     70 H252        13.8350    -7.3050     7.7870 hc         1 VG5       0.014200
     71 H261        11.4440    -6.7470     7.5160 hc         1 VG5       0.016950
     72 H262        12.0710    -7.5650     6.0740 hc         1 VG5       0.016950
     73 H57          3.3010     3.6860    -0.5730 ha         1 VG5       0.096500
     74 H58          4.8050     3.4200    -2.5100 ha         1 VG5       0.096000
     75 H59          6.9570     2.2450    -2.2470 ha         1 VG5       0.096500
     76 H671         0.6360     0.8850     4.9460 h1         1 VG5       0.009700
     77 H672         0.6360    -0.8840     4.9460 h1         1 VG5       0.009700
     78 H681        -0.4500     0.0030     6.9840 hc         1 VG5       0.009033
     79 H682        -1.6110     0.8840     5.9810 hc         1 VG5       0.009033
     80 H683        -1.6080    -0.8850     5.9840 hc         1 VG5       0.009033
     81 H78          0.6870     0.9110    -2.5110 h1         1 VG5       0.030200
     82 H79         -1.0720     0.0550    -4.4640 hc         1 VG5       0.028200
     83 H801        -3.2970     0.6090    -2.8980 hc         1 VG5       0.044700
     84 H802        -2.6710    -1.0440    -3.1450 hc         1 VG5       0.044700
     85 H7A          0.3680    -0.8110    -2.8310 h1         1 VG5       0.030200
     86 H7B         -1.2810     1.6030    -3.5900 hc         1 VG5       0.028200
@<TRIPOS>BOND
     1     1     2 ar  
     2     1     6 ar  
     3     1    36 1   
     4     2     3 ar  
     5     2    42 1   
     6     3     4 ar  
     7     3     7 1   
     8     4     5 ar  
     9     4    44 1   
    10     5     6 ar  
    11     5    33 1   
    12     6    43 1   
    13     7     8 1   
    14     7     9 2   
    15     8    10 1   
    16     8    46 1   
    17    10    11 1   
    18    10    12 1   
    19    10    47 1   
    20    11    14 1   
    21    11    48 1   
    22    11    49 1   
    23    12    13 1   
    24    12    15 1   
    25    12    50 1   
    26    13    51 1   
    27    14    28 ar  
    28    14    32 ar  
    29    15    16 1   
    30    15    52 1   
    31    15    53 1   
    32    16    17 1   
    33    16    56 1   
    34    17    18 1   
    35    17    22 1   
    36    17    57 1   
    37    18    19 1   
    38    18    20 2   
    39    19    21 1   
    40    19    61 1   
    41    21    23 1   
    42    21    27 1   
    43    21    62 1   
    44    22    58 1   
    45    22    59 1   
    46    22    60 1   
    47    23    24 1   
    48    23    63 1   
    49    23    64 1   
    50    24    25 1   
    51    24    67 1   
    52    24    68 1   
    53    25    26 1   
    54    25    69 1   
    55    25    70 1   
    56    26    27 1   
    57    26    71 1   
    58    26    72 1   
    59    27    65 1   
    60    27    66 1   
    61    28    29 ar  
    62    28    54 1   
    63    29    30 ar  
    64    29    73 1   
    65    30    31 ar  
    66    30    74 1   
    67    31    32 ar  
    68    31    75 1   
    69    32    55 1   
    70    33    34 1   
    71    33    45 1   
    72    34    35 1   
    73    34    76 1   
    74    34    77 1   
    75    35    78 1   
    76    35    79 1   
    77    35    80 1   
    78    36    37 1   
    79    36    40 1   
    80    37    38 1   
    81    37    81 1   
    82    37    85 1   
    83    38    39 1   
    84    38    82 1   
    85    38    86 1   
    86    39    40 1   
    87    39    83 1   
    88    39    84 1   
    89    40    41 2   
@<TRIPOS>SUBSTRUCTURE
     1 VG5         1 TEMP              0 ****  ****    0 ROOT
