@<TRIPOS>MOLECULE
molecule
   76    79     1     0     0
SMALL
bcc


@<TRIPOS>ATOM
      1 C1           0.0000     0.0000     0.0000 ca         1 VG6       0.218600
      2 C2           1.4240     0.0000     0.0000 ca         1 VG6      -0.197000
      3 C3           2.1510     0.0000     1.2230 ca         1 VG6      -0.095600
      4 C4           1.4470    -0.0060     2.4490 ca         1 VG6      -0.159000
      5 C5           0.0250    -0.0070     2.4680 ca         1 VG6       0.100600
      6 C6          -0.6790    -0.0060     1.2290 ca         1 VG6      -0.202000
      7 C7           3.6190    -0.0130     1.2360 c          1 VG6       0.684700
      8 N8           4.2020     0.6820     0.2420 ns         1 VG6      -0.563900
      9 O9           4.2860    -0.6390     2.0610 o          1 VG6      -0.613100
     10 C10          5.6480     0.7340     0.0720 c3         1 VG6       0.081700
     11 C11          6.0940     0.1870    -1.3120 c3         1 VG6      -0.026100
     12 C12          6.2680     2.0850     0.5230 c3         1 VG6       0.154100
     13 O13          7.5830     2.2310     0.0460 oh         1 VG6      -0.582800
     14 C14          4.9980    -0.4370    -2.1560 ca         1 VG6      -0.081300
     15 C15          6.3580     2.1380     2.0440 c3         1 VG6       0.147800
     16 N16          6.9930     3.3630     2.5500 n7         1 VG6      -0.828200
     17 C17          4.3130     0.2580    -3.1900 ca         1 VG6      -0.126500
     18 C18          3.3100    -0.4060    -3.9390 ca         1 VG6      -0.131000
     19 C19          2.9850    -1.7580    -3.6670 ca         1 VG6      -0.140000
     20 C20          3.6590    -2.4530    -2.6430 ca         1 VG6      -0.131000
     21 C21          4.6560    -1.7960    -1.8980 ca         1 VG6      -0.126500
     22 N38         -0.7580    -0.0010    -1.1510 nu         1 VG6      -0.812600
     23 C39         -0.2270    -0.1080    -2.5130 c3         1 VG6       0.229800
     24 C41         -0.0950     1.2860    -3.1300 c3         1 VG6      -0.118100
     25 N47         -0.6470    -0.0200     3.6750 n          1 VG6      -0.396000
     26 C48         -1.6460     0.8420     4.0390 c          1 VG6       0.703500
     27 C49         -2.1290     0.4960     5.4460 c3         1 VG6      -0.162400
     28 C50         -1.5380    -0.8920     5.6840 c3         1 VG6      -0.104400
     29 C51         -0.3530    -0.9890     4.7330 c3         1 VG6       0.104000
     30 O58         -2.1100     1.7570     3.3690 o          1 VG6      -0.611500
     31 C59          7.5740     3.2120     3.9110 c3         1 VG6       0.225100
     32 C61          8.5560     2.0580     4.0730 ca         1 VG6      -0.099300
     33 C64          8.2750     1.0150     4.9950 ca         1 VG6      -0.097000
     34 C65          9.1700    -0.0680     5.1580 ca         1 VG6      -0.140000
     35 C66         10.3620    -0.1260     4.4010 ca         1 VG6      -0.081000
     36 C67         10.6910     0.9090     3.4540 ca         1 VG6      -0.211300
     37 C68          9.7520     2.0000     3.3150 ca         1 VG6      -0.046000
     38 C73         12.0100     0.8620     2.6030 c3         1 VG6       0.725200
     39 F74         12.6230     2.0450     2.6660 f          1 VG6      -0.227967
     40 F75         11.6750     0.5960     1.3540 f          1 VG6      -0.227967
     41 F76         12.8520    -0.0790     3.0340 f          1 VG6      -0.227967
     42 H2           1.9590     0.0050    -0.9420 ha         1 VG6       0.139000
     43 H6          -1.7620    -0.0070     1.2360 ha         1 VG6       0.143000
     44 H38         -1.7500     0.0780    -1.0490 hn         1 VG6       0.434800
     45 H4           1.9960    -0.0060     3.3830 ha         1 VG6       0.147000
     46 H8           3.6220     1.1830    -0.4020 hn         1 VG6       0.317500
     47 H10          6.0330     0.0120     0.7830 h1         1 VG6       0.086700
     48 H111         6.5290     1.0050    -1.8740 hc         1 VG6       0.059200
     49 H112         6.8620    -0.5600    -1.1490 hc         1 VG6       0.059200
     50 H12          5.6570     2.9040     0.1650 h1         1 VG6       0.025700
     51 H13          7.6400     3.0080    -0.4840 ho         1 VG6       0.405000
     52 H151         5.3570     2.0720     2.4520 h1         1 VG6       0.049200
     53 H152         6.9300     1.2850     2.3870 h1         1 VG6       0.049200
     54 H17          4.5560     1.2910    -3.4030 ha         1 VG6       0.135000
     55 H21          5.1730    -2.3340    -1.1120 ha         1 VG6       0.135000
     56 H16          6.3250     4.1080     2.5520 hn         1 VG6       0.355800
     57 H591         8.0870     4.1330     4.1650 h1         1 VG6       0.037200
     58 H592         6.7620     3.0690     4.6140 h1         1 VG6       0.037200
     59 H18          2.7890     0.1250    -4.7270 ha         1 VG6       0.132500
     60 H19          2.2160    -2.2560    -4.2460 ha         1 VG6       0.130000
     61 H20          3.4130    -3.4870    -2.4330 ha         1 VG6       0.132500
     62 H391         0.7470    -0.5820    -2.4840 h1         1 VG6       0.051700
     63 H392        -0.9000    -0.7060    -3.1160 h1         1 VG6       0.051700
     64 H411         0.6300     1.8620    -2.5690 hc         1 VG6       0.040700
     65 H412        -1.0560     1.7860    -3.1000 hc         1 VG6       0.040700
     66 H413         0.2330     1.1960    -4.1590 hc         1 VG6       0.040700
     67 H511         0.5630    -0.7200     5.2450 h1         1 VG6       0.056200
     68 H512        -0.2830    -1.9880     4.3190 h1         1 VG6       0.056200
     69 H491        -1.7400     1.2050     6.1670 hc         1 VG6       0.079700
     70 H492        -3.2110     0.4610     5.4790 hc         1 VG6       0.079700
     71 H501        -1.2040    -0.9860     6.7100 hc         1 VG6       0.058200
     72 H502        -2.2700    -1.6550     5.4490 hc         1 VG6       0.058200
     73 H64          7.3640     1.0500     5.5800 ha         1 VG6       0.134000
     74 H68          9.9690     2.7940     2.6120 ha         1 VG6       0.153000
     75 H65          8.9410    -0.8560     5.8650 ha         1 VG6       0.140000
     76 H66         11.0390    -0.9610     4.5350 ha         1 VG6       0.142000
@<TRIPOS>BOND
     1     1     2 ar
     2     1     6 ar
     3     1    22 1
     4     2     3 ar
     5     3     4 ar
     6     3     7 1
     7     4     5 ar
     8     5     6 ar
     9     5    25 1
    10     7     8 1
    11     7     9 2
    12     8    10 1
    13    10    11 1
    14    10    12 1
    15    11    14 1
    16    12    13 1
    17    12    15 1
    18    14    17 ar
    19    14    21 ar
    20    15    16 1
    21    16    31 1
    22    17    18 ar
    23    18    19 ar
    24    19    20 ar
    25    20    21 ar
    26    22    23 1
    27    23    24 1
    28    25    26 1
    29    25    29 1
    30    26    27 1
    31    26    30 2
    32    27    28 1
    33    28    29 1
    34    31    32 1
    35    32    33 ar
    36    32    37 ar
    37    33    34 ar
    38    34    35 ar
    39    35    36 ar
    40    36    37 ar
    41    36    38 1
    42    38    39 1
    43    38    40 1
    44    38    41 1
    45     2    42 1
    46     6    43 1
    47    22    44 1
    48     4    45 1
    49     8    46 1
    50    10    47 1
    51    11    48 1
    52    11    49 1
    53    12    50 1
    54    13    51 1
    55    15    52 1
    56    15    53 1
    57    17    54 1
    58    21    55 1
    59    16    56 1
    60    31    57 1
    61    31    58 1
    62    18    59 1
    63    19    60 1
    64    20    61 1
    65    23    62 1
    66    23    63 1
    67    24    64 1
    68    24    65 1
    69    24    66 1
    70    29    67 1
    71    29    68 1
    72    27    69 1
    73    27    70 1
    74    28    71 1
    75    28    72 1
    76    33    73 1
    77    37    74 1
    78    34    75 1
    79    35    76 1
@<TRIPOS>SUBSTRUCTURE
     1 VG6         1 TEMP              0 ****  ****    0 ROOT
