@<TRIPOS>MOLECULE
VG7
   76    79     1     0     0
SMALL
bcc


@<TRIPOS>ATOM
      1 C1           0.0000     0.0000     0.0000 ca         1 VG7       0.077600
      2 C2           1.4390     0.0000     0.0000 ca         1 VG7      -0.176000
      3 C3           2.1970     0.0000     1.2290 ca         1 VG7      -0.104600
      4 C4           1.5090    -0.0030     2.4830 ca         1 VG7      -0.118000
      5 C5           0.0640    -0.0050     2.5150 ca         1 VG7      -0.036400
      6 C6          -0.6720    -0.0040     1.2550 ca         1 VG7      -0.167000
      7 C7           3.6440    -0.0130     1.1620 c          1 VG7       0.611700
      8 N8           4.1740     0.8180     0.2220 ns         1 VG7      -0.198900
      9 O9           4.3490    -0.7460     1.8680 o          1 VG7      -0.651100
     10 C10          5.6240     0.9180    -0.0660 c3         1 VG7      -0.003300
     11 C11          5.7720     0.8740    -1.6300 c3         1 VG7       0.033900
     12 C12          6.2630     2.1800     0.5700 c3         1 VG7       0.187100
     13 O13          7.6360     2.2440     0.2390 oh         1 VG7      -0.584800
     14 C14          4.8750    -0.1820    -2.2790 ca         1 VG7      -0.097300
     15 C15          6.2200     2.1220     2.0810 c3         1 VG7       0.115800
     16 C17          3.9740     0.1920    -3.3460 ca         1 VG7      -0.097000
     17 C18          3.1150    -0.7880    -3.9660 ca         1 VG7      -0.101500
     18 C19          3.1440    -2.1540    -3.5240 ca         1 VG7      -0.107000
     19 C20          4.0340    -2.5380    -2.4650 ca         1 VG7      -0.101500
     20 C21          4.8930    -1.5640    -1.8460 ca         1 VG7      -0.097000
     21 N38         -0.7710    -0.0030    -1.1580 nu         1 VG7      -0.408600
     22 C39         -0.2810    -0.1960    -2.5300 c3         1 VG7       0.159800
     23 C41         -0.1030     1.1550    -3.2340 c3         1 VG7      -0.020100
     24 N47         -0.6060    -0.0170     3.7330 n          1 VG7      -0.016000
     25 C48         -1.6380     0.8080     4.0740 c          1 VG7       0.624500
     26 C49         -2.1120     0.4820     5.4870 c3         1 VG7      -0.108400
     27 C50         -1.4080    -0.8440     5.8020 c3         1 VG7      -0.042400
     28 C51         -0.2600    -0.9540     4.8160 c3         1 VG7       0.045000
     29 O58         -2.1450     1.6870     3.3880 o          1 VG7      -0.654500
     30 N16          6.8270     3.2980     2.7230 n7         1 VG7      -0.587200
     31 C59          7.2030     3.0180     4.1340 c3         1 VG7       0.123500
     32 C61          5.9170     2.9880     5.0350 c3         1 VG7      -0.016400
     33 C62          6.2770     2.6980     6.5570 c3         1 VG7      -0.016900
     34 C63          7.8360     2.5050     6.7810 c3         1 VG7      -0.016400
     35 C64          8.5630     3.7840     6.1880 c3         1 VG7      -0.016900
     36 C65          8.1990     4.0830     4.6800 c3         1 VG7      -0.016400
     37 H2           1.9680     0.0030    -0.9460 ha         1 VG7       0.118000
     38 H6          -1.7550    -0.0050     1.2750 ha         1 VG7       0.121000
     39 H38         -1.7550     0.1400    -1.0450 hn         1 VG7       0.284800
     40 H4           2.0710    -0.0030     3.4090 ha         1 VG7       0.121000
     41 H8           3.5480     1.3960    -0.3030 hn         1 VG7       0.183500
     42 H10          6.1150     0.0450     0.3470 h1         1 VG7       0.068700
     43 H111         5.5150     1.8470    -2.0320 hc         1 VG7       0.022700
     44 H112         6.8040     0.6560    -1.8770 hc         1 VG7       0.022700
     45 H12          5.7550     3.0700     0.2180 h1         1 VG7       0.007700
     46 H13          7.7900     2.9860    -0.3220 ho         1 VG7       0.391000
     47 H151         5.1860     2.0490     2.3960 h1         1 VG7       0.027200
     48 H152         6.7480     1.2360     2.4100 h1         1 VG7       0.027200
     49 H17          3.9450     1.2200    -3.6870 ha         1 VG7       0.110000
     50 H21          5.5600    -1.8670    -1.0490 ha         1 VG7       0.110000
     51 H16          7.6410     3.5760     2.2100 hn         1 VG7       0.259800
     52 H18          2.4450    -0.4920    -4.7640 ha         1 VG7       0.105500
     53 H19          2.4990    -2.8910    -3.9880 ha         1 VG7       0.105000
     54 H20          4.0590    -3.5680    -2.1290 ha         1 VG7       0.105500
     55 H391        -0.9940    -0.7960    -3.0830 h1         1 VG7       0.023700
     56 H392         0.6720    -0.7120    -2.5000 h1         1 VG7       0.023700
     57 H411         0.5900     1.7680    -2.6700 hc         1 VG7       0.008033
     58 H412         0.2870     0.9930    -4.2320 hc         1 VG7       0.008033
     59 H413        -1.0610     1.6580    -3.2980 hc         1 VG7       0.008033
     60 H511         0.6700    -0.6580     5.2860 h1         1 VG7       0.025700
     61 H512        -0.1910    -1.9640     4.4300 h1         1 VG7       0.025700
     62 H491        -3.1880     0.3560     5.5080 hc         1 VG7       0.044700
     63 H492        -1.7980     1.2530     6.1810 hc         1 VG7       0.044700
     64 H501        -2.0950    -1.6710     5.6660 hc         1 VG7       0.025700
     65 H502        -1.0270    -0.8310     6.8160 hc         1 VG7       0.025700
     66 H59          7.6780     2.0460     4.1830 h1         1 VG7       0.014700
     67 H611         5.4180     3.9470     4.9670 hc         1 VG7       0.015200
     68 H612         5.2530     2.2110     4.6750 hc         1 VG7       0.015200
     69 H651         7.7440     5.0630     4.6120 hc         1 VG7       0.015200
     70 H652         9.1040     4.0610     4.0850 hc         1 VG7       0.015200
     71 H621         5.9370     3.5300     7.1620 hc         1 VG7       0.006700
     72 H622         5.7650     1.7960     6.8710 hc         1 VG7       0.006700
     73 H631         8.0480     2.4220     7.8400 hc         1 VG7       0.013700
     74 H632         8.1750     1.6170     6.2610 hc         1 VG7       0.013700
     75 H641         8.2870     4.6440     6.7860 hc         1 VG7       0.006700
     76 H642         9.6340     3.6350     6.2610 hc         1 VG7       0.006700
@<TRIPOS>BOND
     1     1     2 ar  
     2     1     6 ar  
     3     1    21 1   
     4     2     3 ar  
     5     2    37 1   
     6     3     4 ar  
     7     3     7 1   
     8     4     5 ar  
     9     4    40 1   
    10     5     6 ar  
    11     5    24 1   
    12     6    38 1   
    13     7     8 1   
    14     7     9 2   
    15     8    10 1   
    16     8    41 1   
    17    10    11 1   
    18    10    12 1   
    19    10    42 1   
    20    11    14 1   
    21    11    43 1   
    22    11    44 1   
    23    12    13 1   
    24    12    15 1   
    25    12    45 1   
    26    13    46 1   
    27    14    16 ar  
    28    14    20 ar  
    29    15    30 1   
    30    15    47 1   
    31    15    48 1   
    32    16    17 ar  
    33    16    49 1   
    34    17    18 ar  
    35    17    52 1   
    36    18    19 ar  
    37    18    53 1   
    38    19    20 ar  
    39    19    54 1   
    40    20    50 1   
    41    21    22 1   
    42    21    39 1   
    43    22    23 1   
    44    22    55 1   
    45    22    56 1   
    46    23    57 1   
    47    23    58 1   
    48    23    59 1   
    49    24    25 1   
    50    24    28 1   
    51    25    26 1   
    52    25    29 2   
    53    26    27 1   
    54    26    62 1   
    55    26    63 1   
    56    27    28 1   
    57    27    64 1   
    58    27    65 1   
    59    28    60 1   
    60    28    61 1   
    61    30    31 1   
    62    30    51 1   
    63    31    32 1   
    64    31    36 1   
    65    31    66 1   
    66    32    33 1   
    67    32    67 1   
    68    32    68 1   
    69    33    34 1   
    70    33    71 1   
    71    33    72 1   
    72    34    35 1   
    73    34    73 1   
    74    34    74 1   
    75    35    36 1   
    76    35    75 1   
    77    35    76 1   
    78    36    69 1   
    79    36    70 1   
@<TRIPOS>SUBSTRUCTURE
     1 VG7         1 TEMP              0 ****  ****    0 ROOT
