@<TRIPOS>MOLECULE
molecule
   76    79     1     0     0
SMALL
bcc


@<TRIPOS>ATOM
      1 C1           0.0000     0.0000     0.0000 ca         1 VG7       0.213600
      2 C2           1.4390     0.0000     0.0000 ca         1 VG7      -0.195000
      3 C3           2.1970     0.0000     1.2290 ca         1 VG7      -0.099600
      4 C4           1.5090    -0.0030     2.4830 ca         1 VG7      -0.150000
      5 C5           0.0640    -0.0050     2.5150 ca         1 VG7       0.093600
      6 C6          -0.6720    -0.0040     1.2550 ca         1 VG7      -0.196000
      7 C7           3.6440    -0.0130     1.1620 c          1 VG7       0.687700
      8 N8           4.1740     0.8180     0.2220 ns         1 VG7      -0.578900
      9 O9           4.3490    -0.7460     1.8680 o          1 VG7      -0.610100
     10 C10          5.6240     0.9180    -0.0660 c3         1 VG7       0.100700
     11 C11          5.7720     0.8740    -1.6300 c3         1 VG7      -0.038100
     12 C12          6.2630     2.1800     0.5700 c3         1 VG7       0.135100
     13 O13          7.6360     2.2440     0.2390 oh         1 VG7      -0.605800
     14 C14          4.8750    -0.1820    -2.2790 ca         1 VG7      -0.085300
     15 C15          6.2200     2.1220     2.0810 c3         1 VG7       0.150800
     16 C17          3.9740     0.1920    -3.3460 ca         1 VG7      -0.126000
     17 C18          3.1150    -0.7880    -3.9660 ca         1 VG7      -0.132000
     18 C19          3.1440    -2.1540    -3.5240 ca         1 VG7      -0.137000
     19 C20          4.0340    -2.5380    -2.4650 ca         1 VG7      -0.132000
     20 C21          4.8930    -1.5640    -1.8460 ca         1 VG7      -0.126000
     21 N38         -0.7710    -0.0030    -1.1580 nu         1 VG7      -0.817600
     22 C39         -0.2810    -0.1960    -2.5300 c3         1 VG7       0.234800
     23 C41         -0.1030     1.1550    -3.2340 c3         1 VG7      -0.119100
     24 N47         -0.6060    -0.0170     3.7330 n          1 VG7      -0.393000
     25 C48         -1.6380     0.8080     4.0740 c          1 VG7       0.704500
     26 C49         -2.1120     0.4820     5.4870 c3         1 VG7      -0.162400
     27 C50         -1.4080    -0.8440     5.8020 c3         1 VG7      -0.105400
     28 C51         -0.2600    -0.9540     4.8160 c3         1 VG7       0.106000
     29 O58         -2.1450     1.6870     3.3880 o          1 VG7      -0.613500
     30 N16          6.8270     3.2980     2.7230 n7         1 VG7      -0.822200
     31 C59          7.2030     3.0180     4.1340 c3         1 VG7       0.171500
     32 C61          5.9170     2.9880     5.0350 c3         1 VG7      -0.071400
     33 C62          6.2770     2.6980     6.5570 c3         1 VG7      -0.078900
     34 C63          7.8360     2.5050     6.7810 c3         1 VG7      -0.077400
     35 C64          8.5630     3.7840     6.1880 c3         1 VG7      -0.078900
     36 C65          8.1990     4.0830     4.6800 c3         1 VG7      -0.071400
     37 H2           1.9680     0.0030    -0.9460 ha         1 VG7       0.140000
     38 H6          -1.7550    -0.0050     1.2750 ha         1 VG7       0.144000
     39 H38         -1.7550     0.1400    -1.0450 hn         1 VG7       0.432800
     40 H4           2.0710    -0.0030     3.4090 ha         1 VG7       0.148000
     41 H8           3.5480     1.3960    -0.3030 hn         1 VG7       0.319500
     42 H10          6.1150     0.0450     0.3470 h1         1 VG7       0.093700
     43 H111         5.5150     1.8470    -2.0320 hc         1 VG7       0.055200
     44 H112         6.8040     0.6560    -1.8770 hc         1 VG7       0.055200
     45 H12          5.7550     3.0700     0.2180 h1         1 VG7       0.042700
     46 H13          7.7900     2.9860    -0.3220 ho         1 VG7       0.404000
     47 H151         5.1860     2.0490     2.3960 h1         1 VG7       0.051200
     48 H152         6.7480     1.2360     2.4100 h1         1 VG7       0.051200
     49 H17          3.9450     1.2200    -3.6870 ha         1 VG7       0.136500
     50 H21          5.5600    -1.8670    -1.0490 ha         1 VG7       0.136500
     51 H16          7.6410     3.5760     2.2100 hn         1 VG7       0.355800
     52 H18          2.4450    -0.4920    -4.7640 ha         1 VG7       0.134000
     53 H19          2.4990    -2.8910    -3.9880 ha         1 VG7       0.133000
     54 H20          4.0590    -3.5680    -2.1290 ha         1 VG7       0.134000
     55 H391        -0.9940    -0.7960    -3.0830 h1         1 VG7       0.051200
     56 H392         0.6720    -0.7120    -2.5000 h1         1 VG7       0.051200
     57 H411         0.5900     1.7680    -2.6700 hc         1 VG7       0.040700
     58 H412         0.2870     0.9930    -4.2320 hc         1 VG7       0.040700
     59 H413        -1.0610     1.6580    -3.2980 hc         1 VG7       0.040700
     60 H511         0.6700    -0.6580     5.2860 h1         1 VG7       0.056200
     61 H512        -0.1910    -1.9640     4.4300 h1         1 VG7       0.056200
     62 H491        -3.1880     0.3560     5.5080 hc         1 VG7       0.080200
     63 H492        -1.7980     1.2530     6.1810 hc         1 VG7       0.080200
     64 H501        -2.0950    -1.6710     5.6660 hc         1 VG7       0.057200
     65 H502        -1.0270    -0.8310     6.8160 hc         1 VG7       0.057200
     66 H59          7.6780     2.0460     4.1830 h1         1 VG7       0.029700
     67 H611         5.4180     3.9470     4.9670 hc         1 VG7       0.045200
     68 H612         5.2530     2.2110     4.6750 hc         1 VG7       0.045200
     69 H651         7.7440     5.0630     4.6120 hc         1 VG7       0.045200
     70 H652         9.1040     4.0610     4.0850 hc         1 VG7       0.045200
     71 H621         5.9370     3.5300     7.1620 hc         1 VG7       0.037200
     72 H622         5.7650     1.7960     6.8710 hc         1 VG7       0.037200
     73 H631         8.0480     2.4220     7.8400 hc         1 VG7       0.043200
     74 H632         8.1750     1.6170     6.2610 hc         1 VG7       0.043200
     75 H641         8.2870     4.6440     6.7860 hc         1 VG7       0.037200
     76 H642         9.6340     3.6350     6.2610 hc         1 VG7       0.037200
@<TRIPOS>BOND
     1     1     2 ar
     2     1     6 ar
     3     1    21 1
     4     2     3 ar
     5     3     4 ar
     6     3     7 1
     7     4     5 ar
     8     5     6 ar
     9     5    24 1
    10     7     8 1
    11     7     9 2
    12     8    10 1
    13    10    11 1
    14    10    12 1
    15    11    14 1
    16    12    13 1
    17    12    15 1
    18    14    16 ar
    19    14    20 ar
    20    15    30 1
    21    16    17 ar
    22    17    18 ar
    23    18    19 ar
    24    19    20 ar
    25    21    22 1
    26    22    23 1
    27    24    25 1
    28    24    28 1
    29    25    26 1
    30    25    29 2
    31    26    27 1
    32    27    28 1
    33    30    31 1
    34    31    32 1
    35    31    36 1
    36    32    33 1
    37    33    34 1
    38    34    35 1
    39    35    36 1
    40     2    37 1
    41     6    38 1
    42    21    39 1
    43     4    40 1
    44     8    41 1
    45    10    42 1
    46    11    43 1
    47    11    44 1
    48    12    45 1
    49    13    46 1
    50    15    47 1
    51    15    48 1
    52    16    49 1
    53    20    50 1
    54    30    51 1
    55    17    52 1
    56    18    53 1
    57    19    54 1
    58    22    55 1
    59    22    56 1
    60    23    57 1
    61    23    58 1
    62    23    59 1
    63    28    60 1
    64    28    61 1
    65    26    62 1
    66    26    63 1
    67    27    64 1
    68    27    65 1
    69    31    66 1
    70    32    67 1
    71    32    68 1
    72    36    69 1
    73    36    70 1
    74    33    71 1
    75    33    72 1
    76    34    73 1
    77    34    74 1
    78    35    75 1
    79    35    76 1
@<TRIPOS>SUBSTRUCTURE
     1 VG7         1 TEMP              0 ****  ****    0 ROOT
