@<TRIPOS>MOLECULE
molecule
   76    81     1     0     0
SMALL
bcc


@<TRIPOS>ATOM
      1 CBJ          0.0000     0.0000     0.0000 c3         1 VG8       0.159800
      2 CBL          1.5840     0.0000     0.0000 c3         1 VG8      -0.074400
      3 CBN          2.1460     0.0000     1.4380 c3         1 VG8      -0.064400
      4 CBM          1.6470     1.2290     2.2400 c3         1 VG8      -0.074400
      5 CBK          0.1890     1.6020     1.8100 c3         1 VG8       0.159800
      6 NBI         -0.4790     0.3520     1.3710 n3         1 VG8      -0.724600
      7 CBH         -1.9640     0.4940     1.5210 c3         1 VG8       0.172500
      8 CBF         -2.6970     0.8750     0.2050 c3         1 VG8      -0.101400
      9 CBD         -4.2120     0.9570     0.4610 c3         1 VG8       0.243300
     10 CBG         -2.5870    -0.7770     2.1720 c3         1 VG8      -0.101400
     11 CBE         -3.6970    -1.4210     1.3150 c3         1 VG8       0.243300
     12 NBC         -4.6950    -0.4020     0.8390 nh         1 VG8      -0.757000
     13 CBB         -6.0620    -0.7860     0.7560 ca         1 VG8       0.220600
     14 CAZ         -6.4440    -1.9730     1.3760 ca         1 VG8      -0.186000
     15 CAO         -7.7540    -2.4200     1.3260 ca         1 VG8      -0.079000
     16 CAY         -7.0380    -0.0540     0.0760 ca         1 VG8      -0.164300
     17 CAX         -6.9240     1.2700    -0.6900 c3         1 VG8       0.150300
     18 NAU         -8.3030     1.4620    -1.1370 n          1 VG8      -0.489800
     19 CAT         -8.7760     2.5940    -1.9450 c3         1 VG8       0.122300
     20 CAM         -9.0730     0.4630    -0.7180 c          1 VG8       0.709100
     21 OAI        -10.2780     0.4060    -0.9650 o          1 VG8      -0.641500
     22 CAN         -8.3630    -0.4880     0.0230 ca         1 VG8      -0.118600
     23 CAJ         -8.7250    -1.6910     0.6470 ca         1 VG8       0.161600
     24 NAE         -9.9850    -2.1720     0.6290 nu         1 VG8      -0.750300
     25 C4         -10.3140    -3.2500    -0.1160 ca         1 VG8       0.782200
     26 N3          -9.3940    -4.1940    -0.4040 nb         1 VG8      -0.867000
     27 C5         -11.6020    -3.4320    -0.6180 ca         1 VG8      -0.333200
     28 Cl5        -12.8760    -2.2910    -0.3030 cl         1 VG8      -0.095400
     29 C6         -11.8590    -4.5690    -1.3870 ca         1 VG8       0.530200
     30 N1         -10.9060    -5.4550    -1.6400 nb         1 VG8      -0.821000
     31 C2          -9.6770    -5.2780    -1.1500 ca         1 VG8       0.968900
     32 NAH         -8.7430    -6.1800    -1.4320 nu         1 VG8      -0.705300
     33 CAL         -7.5250    -6.1990    -0.8780 ca         1 VG8       0.125600
     34 CAP         -6.7420    -5.0520    -0.7860 ca         1 VG8      -0.094000
     35 CAV         -5.4780    -5.1010    -0.2040 ca         1 VG8      -0.153000
     36 CBA         -4.9720    -6.3020     0.2760 ca         1 VG8      -0.111000
     37 CAW         -5.7480    -7.4520     0.1780 ca         1 VG8      -0.198000
     38 CAQ         -7.0170    -7.4030    -0.4000 ca         1 VG8       0.085100
     39 OAR         -7.7740    -8.5230    -0.5070 os         1 VG8      -0.309900
     40 CAS         -6.8970    -9.6780    -0.4750 c3         1 VG8       0.110700
     41 HBJ1        -0.3620    -0.9850    -0.2690 h1         1 VG8       0.035200
     42 HBJ2        -0.3620     0.7330    -0.7100 h1         1 VG8       0.035200
     43 HBL1         1.9370    -0.8840    -0.5170 hc         1 VG8       0.041200
     44 HBL2         1.9370     0.8840    -0.5170 hc         1 VG8       0.041200
     45 HBN1         1.8260    -0.9040     1.9420 hc         1 VG8       0.044700
     46 HBN2         3.2280     0.0230     1.3940 hc         1 VG8       0.044700
     47 HBM1         2.3020     2.0700     2.0470 hc         1 VG8       0.041200
     48 HBM2         1.6590     0.9940     3.2970 hc         1 VG8       0.041200
     49 HBK1         0.2170     2.3110     0.9910 h1         1 VG8       0.035200
     50 HBK2        -0.3440     2.0260     2.6530 h1         1 VG8       0.035200
     51 HBH         -2.1330     1.3100     2.2130 h1         1 VG8       0.048700
     52 HBF1        -2.3390     1.8380    -0.1390 hc         1 VG8       0.057700
     53 HBF2        -2.5000     0.1210    -0.5470 hc         1 VG8       0.057700
     54 HBG1        -3.0070    -0.5030     3.1320 hc         1 VG8       0.057700
     55 HBG2        -1.8020    -1.5070     2.3260 hc         1 VG8       0.057700
     56 HBD1        -4.4080     1.6510     1.2680 h1         1 VG8       0.044200
     57 HBD2        -4.7160     1.2840    -0.4410 h1         1 VG8       0.044200
     58 HBE1        -4.2120    -2.1670     1.9090 h1         1 VG8       0.044200
     59 HBE2        -3.2450    -1.8990     0.4540 h1         1 VG8       0.044200
     60 HAZ         -5.7040    -2.5560     1.9100 ha         1 VG8       0.141000
     61 HAO         -8.0250    -3.3470     1.8170 ha         1 VG8       0.157000
     62 HAX1        -6.6160     2.0730    -0.0310 h1         1 VG8       0.058200
     63 HAX2        -6.2540     1.1710    -1.5350 h1         1 VG8       0.058200
     64 HAT1        -7.9500     3.2680    -2.1390 h1         1 VG8       0.044033
     65 HAT2        -9.5540     3.1220    -1.4070 h1         1 VG8       0.044033
     66 HAT3        -9.1710     2.2280    -2.8840 h1         1 VG8       0.044033
     67 HAE        -10.6900    -1.7190     1.1760 hn         1 VG8       0.472800
     68 H6         -12.8530    -4.7260    -1.7880 h4         1 VG8       0.036100
     69 HAH         -8.9640    -6.8900    -2.1010 hn         1 VG8       0.471800
     70 HAP         -7.1260    -4.1090    -1.1570 ha         1 VG8       0.163000
     71 HAV         -4.8810    -4.2000    -0.1360 ha         1 VG8       0.130000
     72 HBA         -3.9870    -6.3410     0.7270 ha         1 VG8       0.131000
     73 HAW         -5.3610    -8.3930     0.5490 ha         1 VG8       0.137000
     74 HAS1        -7.4210   -10.5410    -0.8670 h1         1 VG8       0.044033
     75 HAS2        -6.5940    -9.8730     0.5470 h1         1 VG8       0.044033
     76 HAS3        -6.0200    -9.4820    -1.0800 h1         1 VG8       0.044033
@<TRIPOS>BOND
     1     1     2 1
     2     1     6 1
     3     2     3 1
     4     3     4 1
     5     4     5 1
     6     5     6 1
     7     6     7 1
     8     7     8 1
     9     7    10 1
    10     8     9 1
    11     9    12 1
    12    10    11 1
    13    11    12 1
    14    12    13 1
    15    13    14 ar
    16    13    16 ar
    17    14    15 ar
    18    15    23 ar
    19    16    17 1
    20    16    22 ar
    21    17    18 1
    22    18    19 1
    23    18    20 1
    24    20    21 2
    25    20    22 1
    26    22    23 ar
    27    23    24 1
    28    24    25 1
    29    25    26 ar
    30    25    27 ar
    31    26    31 ar
    32    27    28 1
    33    27    29 ar
    34    29    30 ar
    35    30    31 ar
    36    31    32 1
    37    32    33 1
    38    33    34 ar
    39    33    38 ar
    40    34    35 ar
    41    35    36 ar
    42    36    37 ar
    43    37    38 ar
    44    38    39 1
    45    39    40 1
    46     1    41 1
    47     1    42 1
    48     2    43 1
    49     2    44 1
    50     3    45 1
    51     3    46 1
    52     4    47 1
    53     4    48 1
    54     5    49 1
    55     5    50 1
    56     7    51 1
    57     8    52 1
    58     8    53 1
    59    10    54 1
    60    10    55 1
    61     9    56 1
    62     9    57 1
    63    11    58 1
    64    11    59 1
    65    14    60 1
    66    15    61 1
    67    17    62 1
    68    17    63 1
    69    19    64 1
    70    19    65 1
    71    19    66 1
    72    24    67 1
    73    29    68 1
    74    32    69 1
    75    34    70 1
    76    35    71 1
    77    36    72 1
    78    37    73 1
    79    40    74 1
    80    40    75 1
    81    40    76 1
@<TRIPOS>SUBSTRUCTURE
     1 VG8         1 TEMP              0 ****  ****    0 ROOT
