@<TRIPOS>MOLECULE
VG8
   76    81     1     0     0
SMALL
bcc


@<TRIPOS>ATOM
      1 CBJ          0.0000     0.0000     0.0000 c3         1 VG8       0.154300
      2 CBL          1.5840     0.0000     0.0000 c3         1 VG8      -0.016900
      3 CBN          2.1460     0.0000     1.4380 c3         1 VG8      -0.011400
      4 CBM          1.6470     1.2290     2.2400 c3         1 VG8      -0.016900
      5 CBK          0.1890     1.6020     1.8100 c3         1 VG8       0.154300
      6 NBI         -0.4790     0.3520     1.3710 n3         1 VG8      -0.541600
      7 CBH         -1.9640     0.4940     1.5210 c3         1 VG8       0.133500
      8 CBF         -2.6970     0.8750     0.2050 c3         1 VG8      -0.045900
      9 CBD         -4.2120     0.9570     0.4610 c3         1 VG8       0.182800
     10 CBG         -2.5870    -0.7770     2.1720 c3         1 VG8      -0.045900
     11 CBE         -3.6970    -1.4210     1.3150 c3         1 VG8       0.182800
     12 NBC         -4.6950    -0.4020     0.8390 nh         1 VG8      -0.424000
     13 CBB         -6.0620    -0.7860     0.7560 ca         1 VG8       0.112600
     14 CAZ         -6.4440    -1.9730     1.3760 ca         1 VG8      -0.175000
     15 CAO         -7.7540    -2.4200     1.3260 ca         1 VG8      -0.049000
     16 CAY         -7.0380    -0.0540     0.0760 ca         1 VG8      -0.172300
     17 CAX         -6.9240     1.2700    -0.6900 c3         1 VG8       0.116300
     18 NAU         -8.3030     1.4620    -1.1370 n          1 VG8      -0.150800
     19 CAT         -8.7760     2.5940    -1.9450 c3         1 VG8       0.116300
     20 CAM         -9.0730     0.4630    -0.7180 c          1 VG8       0.639100
     21 OAI        -10.2780     0.4060    -0.9650 o          1 VG8      -0.690500
     22 CAN         -8.3630    -0.4880     0.0230 ca         1 VG8      -0.119600
     23 CAJ         -8.7250    -1.6910     0.6470 ca         1 VG8       0.014600
     24 NAE         -9.9850    -2.1720     0.6290 nu         1 VG8      -0.272300
     25 C4         -10.3140    -3.2500    -0.1160 ca         1 VG8       0.589200
     26 N3          -9.3940    -4.1940    -0.4040 nb         1 VG8      -0.790000
     27 C5         -11.6020    -3.4320    -0.6180 ca         1 VG8      -0.423200
     28 Cl5        -12.8760    -2.2910    -0.3030 cl         1 VG8       0.002600
     29 C6         -11.8590    -4.5690    -1.3870 ca         1 VG8       0.537200
     30 N1         -10.9060    -5.4550    -1.6400 nb         1 VG8      -0.751000
     31 C2          -9.6770    -5.2780    -1.1500 ca         1 VG8       0.730900
     32 NAH         -8.7430    -6.1800    -1.4320 nu         1 VG8      -0.198300
     33 CAL         -7.5250    -6.1990    -0.8780 ca         1 VG8      -0.052400
     34 CAP         -6.7420    -5.0520    -0.7860 ca         1 VG8      -0.067000
     35 CAV         -5.4780    -5.1010    -0.2040 ca         1 VG8      -0.131000
     36 CBA         -4.9720    -6.3020     0.2760 ca         1 VG8      -0.076000
     37 CAW         -5.7480    -7.4520     0.1780 ca         1 VG8      -0.187000
     38 CAQ         -7.0170    -7.4030    -0.4000 ca         1 VG8       0.102100
     39 OAR         -7.7740    -8.5230    -0.5070 os         1 VG8      -0.294900
     40 CAS         -6.8970    -9.6780    -0.4750 c3         1 VG8       0.227700
     41 HBJ1        -0.3620    -0.9850    -0.2690 h1         1 VG8       0.009950
     42 HBJ2        -0.3620     0.7330    -0.7100 h1         1 VG8       0.009950
     43 HBL1         1.9370    -0.8840    -0.5170 hc         1 VG8       0.010950
     44 HBL2         1.9370     0.8840    -0.5170 hc         1 VG8       0.010950
     45 HBN1         1.8260    -0.9040     1.9420 hc         1 VG8       0.015700
     46 HBN2         3.2280     0.0230     1.3940 hc         1 VG8       0.015700
     47 HBM1         2.3020     2.0700     2.0470 hc         1 VG8       0.010950
     48 HBM2         1.6590     0.9940     3.2970 hc         1 VG8       0.010950
     49 HBK1         0.2170     2.3110     0.9910 h1         1 VG8       0.009950
     50 HBK2        -0.3440     2.0260     2.6530 h1         1 VG8       0.009950
     51 HBH         -2.1330     1.3100     2.2130 h1         1 VG8       0.025700
     52 HBF1        -2.3390     1.8380    -0.1390 hc         1 VG8       0.028200
     53 HBF2        -2.5000     0.1210    -0.5470 hc         1 VG8       0.028200
     54 HBG1        -3.0070    -0.5030     3.1320 hc         1 VG8       0.028200
     55 HBG2        -1.8020    -1.5070     2.3260 hc         1 VG8       0.028200
     56 HBD1        -4.4080     1.6510     1.2680 h1         1 VG8       0.020950
     57 HBD2        -4.7160     1.2840    -0.4410 h1         1 VG8       0.020950
     58 HBE1        -4.2120    -2.1670     1.9090 h1         1 VG8       0.020950
     59 HBE2        -3.2450    -1.8990     0.4540 h1         1 VG8       0.020950
     60 HAZ         -5.7040    -2.5560     1.9100 ha         1 VG8       0.126000
     61 HAO         -8.0250    -3.3470     1.8170 ha         1 VG8       0.125000
     62 HAX1        -6.6160     2.0730    -0.0310 h1         1 VG8       0.028200
     63 HAX2        -6.2540     1.1710    -1.5350 h1         1 VG8       0.028200
     64 HAT1        -7.9500     3.2680    -2.1390 h1         1 VG8       0.010033
     65 HAT2        -9.5540     3.1220    -1.4070 h1         1 VG8       0.010033
     66 HAT3        -9.1710     2.2280    -2.8840 h1         1 VG8       0.010033
     67 HAE        -10.6900    -1.7190     1.1760 hn         1 VG8       0.296800
     68 H6         -12.8530    -4.7260    -1.7880 h4         1 VG8      -0.018900
     69 HAH         -8.9640    -6.8900    -2.1010 hn         1 VG8       0.288800
     70 HAP         -7.1260    -4.1090    -1.1570 ha         1 VG8       0.134000
     71 HAV         -4.8810    -4.2000    -0.1360 ha         1 VG8       0.103000
     72 HBA         -3.9870    -6.3410     0.7270 ha         1 VG8       0.102000
     73 HAW         -5.3610    -8.3930     0.5490 ha         1 VG8       0.122000
     74 HAS1        -7.4210   -10.5410    -0.8670 h1         1 VG8       0.001367
     75 HAS2        -6.5940    -9.8730     0.5470 h1         1 VG8       0.001367
     76 HAS3        -6.0200    -9.4820    -1.0800 h1         1 VG8       0.001367
@<TRIPOS>BOND
     1     1     2 1   
     2     1     6 1   
     3     1    41 1   
     4     1    42 1   
     5     2     3 1   
     6     2    43 1   
     7     2    44 1   
     8     3     4 1   
     9     3    45 1   
    10     3    46 1   
    11     4     5 1   
    12     4    47 1   
    13     4    48 1   
    14     5     6 1   
    15     5    49 1   
    16     5    50 1   
    17     6     7 1   
    18     7     8 1   
    19     7    10 1   
    20     7    51 1   
    21     8     9 1   
    22     8    52 1   
    23     8    53 1   
    24     9    12 1   
    25     9    56 1   
    26     9    57 1   
    27    10    11 1   
    28    10    54 1   
    29    10    55 1   
    30    11    12 1   
    31    11    58 1   
    32    11    59 1   
    33    12    13 1   
    34    13    14 ar  
    35    13    16 ar  
    36    14    15 ar  
    37    14    60 1   
    38    15    23 ar  
    39    15    61 1   
    40    16    17 1   
    41    16    22 ar  
    42    17    18 1   
    43    17    62 1   
    44    17    63 1   
    45    18    19 1   
    46    18    20 1   
    47    19    64 1   
    48    19    65 1   
    49    19    66 1   
    50    20    21 2   
    51    20    22 1   
    52    22    23 ar  
    53    23    24 1   
    54    24    25 1   
    55    24    67 1   
    56    25    26 ar  
    57    25    27 ar  
    58    26    31 ar  
    59    27    28 1   
    60    27    29 ar  
    61    29    30 ar  
    62    29    68 1   
    63    30    31 ar  
    64    31    32 1   
    65    32    33 1   
    66    32    69 1   
    67    33    34 ar  
    68    33    38 ar  
    69    34    35 ar  
    70    34    70 1   
    71    35    36 ar  
    72    35    71 1   
    73    36    37 ar  
    74    36    72 1   
    75    37    38 ar  
    76    37    73 1   
    77    38    39 1   
    78    39    40 1   
    79    40    74 1   
    80    40    75 1   
    81    40    76 1   
@<TRIPOS>SUBSTRUCTURE
     1 VG8         1 TEMP              0 ****  ****    0 ROOT
