@<TRIPOS>MOLECULE
molecule
   51    53     1     0     0
SMALL
bcc


@<TRIPOS>ATOM
      1 N2           0.0000     0.0000     0.0000 nv         1 VG9      -1.051500
      2 C2           1.3500     0.0000     0.0000 ca         1 VG9       0.965900
      3 N3           2.0180     0.0000     1.1680 nb         1 VG9      -0.820000
      4 C4           3.3600     0.0430     1.1990 ca         1 VG9       0.750200
      5 N4           3.8820    -0.0330     2.4440 nv         1 VG9      -1.022500
      6 N1           2.0000    -0.0140    -1.1750 nb         1 VG9      -0.749000
      7 C8A          3.3520     0.0090    -1.2060 ca         1 VG9       0.715300
      8 N8           3.9470    -0.0300    -2.4190 nb         1 VG9      -0.666000
      9 C7           5.2760    -0.0020    -2.5250 ca         1 VG9       0.476200
     10 C6           6.0860     0.0450    -1.4010 ca         1 VG9      -0.280600
     11 C5           5.5160     0.0870    -0.1210 ca         1 VG9       0.002700
     12 C5A          6.4360     0.4070     1.0390 c3         1 VG9      -0.058800
     13 C4A          4.0980     0.0410    -0.0190 ca         1 VG9      -0.347600
     14 C9           7.6040     0.0700    -1.5430 c3         1 VG9       0.290100
     15 N10          8.0270    -0.1930    -2.9100 nu         1 VG9      -0.806600
     16 C11          8.2660     0.7470    -3.8550 ca         1 VG9       0.202600
     17 C12          8.7180     0.3080    -5.0970 ca         1 VG9      -0.001900
     18 O2           8.9200    -1.0290    -5.3050 os         1 VG9      -0.361900
     19 C21         10.0270    -1.6990    -4.6920 c3         1 VG9       0.133400
     20 C22          9.6650    -3.0810    -4.2230 c3         1 VG9      -0.110100
     21 C13          8.9670     1.2060    -6.1290 ca         1 VG9      -0.065000
     22 C14          8.7660     2.5710    -5.9190 ca         1 VG9      -0.197000
     23 C15          8.3090     3.0250    -4.6780 ca         1 VG9       0.182100
     24 C16          8.0500     2.1120    -3.6470 ca         1 VG9      -0.274000
     25 O5           8.1200     4.3700    -4.4900 os         1 VG9      -0.360900
     26 C51          6.9820     4.8940    -3.7940 c3         1 VG9       0.152400
     27 C52          5.9750     5.4070    -4.7960 c3         1 VG9      -0.121100
     28 H21N        -0.5000     0.8620    -0.0960 hn         1 VG9       0.448300
     29 H22N        -0.5000    -0.8660     0.0440 hn         1 VG9       0.448300
     30 H41N         4.5760    -0.7230     2.6540 hn         1 VG9       0.445800
     31 H42N         3.5240     0.5530     3.1720 hn         1 VG9       0.445800
     32 H7           5.7310    -0.0340    -3.5070 h4         1 VG9       0.047100
     33 H91C         8.0310    -0.6830    -0.8920 h1         1 VG9       0.057200
     34 H92C         7.9700     1.0440    -1.2420 h1         1 VG9       0.057200
     35 H5A1         7.3660     0.8150     0.6600 hc         1 VG9       0.052367
     36 H5A2         6.6410    -0.4980     1.5980 hc         1 VG9       0.052367
     37 H5A3         5.9610     1.1330     1.6880 hc         1 VG9       0.052367
     38 H10          8.1490    -1.1500    -3.1760 hn         1 VG9       0.446800
     39 H16          7.6960     2.4650    -2.6860 ha         1 VG9       0.138000
     40 H13          9.3190     0.8480    -7.0890 ha         1 VG9       0.147000
     41 H211        10.8350    -1.7720    -5.4100 h1         1 VG9       0.034700
     42 H212        10.3630    -1.1160    -3.8430 h1         1 VG9       0.034700
     43 H221         9.8120    -3.1480    -3.1520 hc         1 VG9       0.046367
     44 H222        10.2960    -3.8080    -4.7200 hc         1 VG9       0.046367
     45 H223         8.6270    -3.2820    -4.4580 hc         1 VG9       0.046367
     46 H14          8.9620     3.2780    -6.7160 ha         1 VG9       0.146000
     47 H511         6.5310     4.1110    -3.1960 h1         1 VG9       0.046200
     48 H512         7.2960     5.7060    -3.1480 h1         1 VG9       0.046200
     49 H521         6.4750     6.0420    -5.5180 hc         1 VG9       0.046700
     50 H522         5.2120     5.9780    -4.2810 hc         1 VG9       0.046700
     51 H523         5.5160     4.5700    -5.3080 hc         1 VG9       0.046700
@<TRIPOS>BOND
     1     1     2 1
     2     2     3 ar
     3     2     6 ar
     4     3     4 ar
     5     4     5 1
     6     4    13 ar
     7     6     7 ar
     8     7     8 ar
     9     7    13 ar
    10     8     9 ar
    11     9    10 ar
    12    10    11 ar
    13    10    14 1
    14    11    12 1
    15    11    13 ar
    16    14    15 1
    17    15    16 1
    18    16    17 ar
    19    16    24 ar
    20    17    18 1
    21    17    21 ar
    22    18    19 1
    23    19    20 1
    24    21    22 ar
    25    22    23 ar
    26    23    24 ar
    27    23    25 1
    28    25    26 1
    29    26    27 1
    30     1    28 1
    31     1    29 1
    32     5    30 1
    33     5    31 1
    34     9    32 1
    35    14    33 1
    36    14    34 1
    37    12    35 1
    38    12    36 1
    39    12    37 1
    40    15    38 1
    41    24    39 1
    42    21    40 1
    43    19    41 1
    44    19    42 1
    45    20    43 1
    46    20    44 1
    47    20    45 1
    48    22    46 1
    49    26    47 1
    50    26    48 1
    51    27    49 1
    52    27    50 1
    53    27    51 1
@<TRIPOS>SUBSTRUCTURE
     1 VG9         1 TEMP              0 ****  ****    0 ROOT
