@<TRIPOS>MOLECULE
VG9
   51    53     1     0     0
SMALL
bcc


@<TRIPOS>ATOM
      1 N2           0.0000     0.0000     0.0000 nv         1 VG9      -0.625500
      2 C2           1.3500     0.0000     0.0000 ca         1 VG9       0.760900
      3 N3           2.0180     0.0000     1.1680 nb         1 VG9      -0.729000
      4 C4           3.3600     0.0430     1.1990 ca         1 VG9       0.560200
      5 N4           3.8820    -0.0330     2.4440 nv         1 VG9      -0.542500
      6 N1           2.0000    -0.0140    -1.1750 nb         1 VG9      -0.656000
      7 C8A          3.3520     0.0090    -1.2060 ca         1 VG9       0.634300
      8 N8           3.9470    -0.0300    -2.4190 nb         1 VG9      -0.566000
      9 C7           5.2760    -0.0020    -2.5250 ca         1 VG9       0.447200
     10 C6           6.0860     0.0450    -1.4010 ca         1 VG9      -0.278600
     11 C5           5.5160     0.0870    -0.1210 ca         1 VG9      -0.001300
     12 C5A          6.4360     0.4070     1.0390 c3         1 VG9       0.040200
     13 C4A          4.0980     0.0410    -0.0190 ca         1 VG9      -0.324600
     14 C9           7.6040     0.0700    -1.5430 c3         1 VG9       0.230100
     15 N10          8.0270    -0.1930    -2.9100 nu         1 VG9      -0.399600
     16 C11          8.2660     0.7470    -3.8550 ca         1 VG9       0.064600
     17 C12          8.7180     0.3080    -5.0970 ca         1 VG9      -0.005900
     18 O2           8.9200    -1.0290    -5.3050 os         1 VG9      -0.330900
     19 C21         10.0270    -1.6990    -4.6920 c3         1 VG9       0.199400
     20 C22          9.6650    -3.0810    -4.2230 c3         1 VG9      -0.017100
     21 C13          8.9670     1.2060    -6.1290 ca         1 VG9      -0.031000
     22 C14          8.7660     2.5710    -5.9190 ca         1 VG9      -0.184000
     23 C15          8.3090     3.0250    -4.6780 ca         1 VG9       0.193100
     24 C16          8.0500     2.1120    -3.6470 ca         1 VG9      -0.265000
     25 O5           8.1200     4.3700    -4.4900 os         1 VG9      -0.336900
     26 C51          6.9820     4.8940    -3.7940 c3         1 VG9       0.219400
     27 C52          5.9750     5.4070    -4.7960 c3         1 VG9      -0.029100
     28 H21N        -0.5000     0.8620    -0.0960 hn         1 VG9       0.281800
     29 H22N        -0.5000    -0.8660     0.0440 hn         1 VG9       0.281800
     30 H41N         4.5760    -0.7230     2.6540 hn         1 VG9       0.278300
     31 H42N         3.5240     0.5530     3.1720 hn         1 VG9       0.278300
     32 H7           5.7310    -0.0340    -3.5070 h4         1 VG9      -0.001900
     33 H91C         8.0310    -0.6830    -0.8920 h1         1 VG9       0.028700
     34 H92C         7.9700     1.0440    -1.2420 h1         1 VG9       0.028700
     35 H5A1         7.3660     0.8150     0.6600 hc         1 VG9       0.018700
     36 H5A2         6.6410    -0.4980     1.5980 hc         1 VG9       0.018700
     37 H5A3         5.9610     1.1330     1.6880 hc         1 VG9       0.018700
     38 H10          8.1490    -1.1500    -3.1760 hn         1 VG9       0.303800
     39 H16          7.6960     2.4650    -2.6860 ha         1 VG9       0.124000
     40 H13          9.3190     0.8480    -7.0890 ha         1 VG9       0.112000
     41 H211        10.8350    -1.7720    -5.4100 h1         1 VG9      -0.001800
     42 H212        10.3630    -1.1160    -3.8430 h1         1 VG9      -0.001800
     43 H221         9.8120    -3.1480    -3.1520 hc         1 VG9       0.011700
     44 H222        10.2960    -3.8080    -4.7200 hc         1 VG9       0.011700
     45 H223         8.6270    -3.2820    -4.4580 hc         1 VG9       0.011700
     46 H14          8.9620     3.2780    -6.7160 ha         1 VG9       0.120000
     47 H511         6.5310     4.1110    -3.1960 h1         1 VG9       0.006700
     48 H512         7.2960     5.7060    -3.1480 h1         1 VG9       0.006700
     49 H521         6.4750     6.0420    -5.5180 hc         1 VG9       0.012367
     50 H522         5.2120     5.9780    -4.2810 hc         1 VG9       0.012367
     51 H523         5.5160     4.5700    -5.3080 hc         1 VG9       0.012367
@<TRIPOS>BOND
     1     1     2 1   
     2     1    28 1   
     3     1    29 1   
     4     2     3 ar  
     5     2     6 ar  
     6     3     4 ar  
     7     4     5 1   
     8     4    13 ar  
     9     5    30 1   
    10     5    31 1   
    11     6     7 ar  
    12     7     8 ar  
    13     7    13 ar  
    14     8     9 ar  
    15     9    10 ar  
    16     9    32 1   
    17    10    11 ar  
    18    10    14 1   
    19    11    12 1   
    20    11    13 ar  
    21    12    35 1   
    22    12    36 1   
    23    12    37 1   
    24    14    15 1   
    25    14    33 1   
    26    14    34 1   
    27    15    16 1   
    28    15    38 1   
    29    16    17 ar  
    30    16    24 ar  
    31    17    18 1   
    32    17    21 ar  
    33    18    19 1   
    34    19    20 1   
    35    19    41 1   
    36    19    42 1   
    37    20    43 1   
    38    20    44 1   
    39    20    45 1   
    40    21    22 ar  
    41    21    40 1   
    42    22    23 ar  
    43    22    46 1   
    44    23    24 ar  
    45    23    25 1   
    46    24    39 1   
    47    25    26 1   
    48    26    27 1   
    49    26    47 1   
    50    26    48 1   
    51    27    49 1   
    52    27    50 1   
    53    27    51 1   
@<TRIPOS>SUBSTRUCTURE
     1 VG9         1 TEMP              0 ****  ****    0 ROOT
