@<TRIPOS>MOLECULE
VGA
   46    50     1     0     0
SMALL
bcc


@<TRIPOS>ATOM
      1 N1           0.0000     0.0000     0.0000 ne         1 VGA      -0.598100
      2 C2           1.2850     0.0000     0.0000 c2         1 VGA       0.519200
      3 C3           2.0880     0.0000     1.2710 c3         1 VGA       0.176500
      4 C4           0.6580    -1.5420     2.4280 ce         1 VGA       0.548500
      5 N5           1.8340    -1.2470     1.9910 n2         1 VGA      -0.555900
      6 C6          -0.5250    -0.6800     2.2720 ca         1 VGA      -0.242900
      7 C7          -0.7930     0.0420     1.1030 ca         1 VGA       0.199400
      8 C8          -1.9360     0.8530     1.0460 ca         1 VGA      -0.109000
      9 C9          -2.7900     0.9340     2.1220 ca         1 VGA      -0.074000
     10 C10         -2.5290     0.2120     3.2750 ca         1 VGA      -0.138000
     11 C11         -1.4110    -0.5870     3.3550 ca         1 VGA      -0.063000
     12 C12          0.4830    -2.8340     3.1330 ca         1 VGA      -0.151900
     13 N13          1.9440    -0.0020    -1.1960 nn         1 VGA      -0.426600
     14 C14          1.5610    -0.0040    -2.6160 cy         1 VGA       0.148300
     15 C15          2.8930    -0.7040    -2.9190 cy         1 VGA       0.145100
     16 C16          3.3490     0.0020    -1.6320 cy         1 VGA       0.148300
     17 C17         -0.7730    -3.4350     3.1930 ca         1 VGA      -0.071500
     18 C18         -0.9280    -4.6380     3.8510 ca         1 VGA      -0.113500
     19 C19          0.1610    -5.2470     4.4510 ca         1 VGA      -0.089000
     20 C20          1.4100    -4.6550     4.3950 ca         1 VGA      -0.113500
     21 C21          1.5780    -3.4550     3.7350 ca         1 VGA      -0.071500
     22 C22          1.6780     1.1710     2.1260 cc         1 VGA      -0.021400
     23 S23          1.0070     2.6810     1.5260 ss         1 VGA      -0.271800
     24 C24          0.8820     3.3110     3.1630 cc         1 VGA       0.014900
     25 C25          1.3290     2.4010     4.0290 cd         1 VGA      -0.126000
     26 C26          1.7630     1.2180     3.4570 cd         1 VGA      -0.109000
     27 O27          2.8420    -2.1290    -2.8230 oh         1 VGA      -0.546800
     28 H3           3.1430     0.0700     1.0320 h1         1 VGA       0.053700
     29 H11         -1.2140    -1.1480     4.2600 ha         1 VGA       0.113000
     30 H8          -2.1480     1.4210     0.1480 ha         1 VGA       0.118000
     31 H9          -3.6720     1.5600     2.0650 ha         1 VGA       0.100000
     32 H10         -3.2050     0.2790     4.1190 ha         1 VGA       0.103000
     33 H17         -1.6260    -2.9600     2.7240 ha         1 VGA       0.120500
     34 H21          2.5560    -2.9920     3.6910 ha         1 VGA       0.120500
     35 H141         0.7000    -0.6300    -2.8200 h1         1 VGA       0.036200
     36 H142         1.5020     0.9910    -3.0390 h1         1 VGA       0.036200
     37 H161         3.7320     0.9990    -1.8110 h1         1 VGA       0.036200
     38 H162         3.9850    -0.6190    -1.0130 h1         1 VGA       0.036200
     39 H15          3.3800    -0.3220    -3.8080 h1         1 VGA       0.019700
     40 H27          3.2610    -2.5100    -3.5770 ho         1 VGA       0.392000
     41 H18         -1.9030    -5.1070     3.8980 ha         1 VGA       0.103500
     42 H19          0.0330    -6.1910     4.9680 ha         1 VGA       0.100000
     43 H20          2.2580    -5.1380     4.8650 ha         1 VGA       0.103500
     44 H26          2.1500     0.3940     4.0460 ha         1 VGA       0.132000
     45 H24          0.5020     4.2910     3.4270 h4         1 VGA       0.148000
     46 H25          1.3450     2.5730     5.0980 ha         1 VGA       0.121000
@<TRIPOS>BOND
     1     1     2 2   
     2     1     7 1   
     3     2     3 1   
     4     2    13 1   
     5     3     5 1   
     6     3    22 1   
     7     3    28 1   
     8     4     5 2   
     9     4     6 1   
    10     4    12 1   
    11     6     7 ar  
    12     6    11 ar  
    13     7     8 ar  
    14     8     9 ar  
    15     8    30 1   
    16     9    10 ar  
    17     9    31 1   
    18    10    11 ar  
    19    10    32 1   
    20    11    29 1   
    21    12    17 ar  
    22    12    21 ar  
    23    13    14 1   
    24    13    16 1   
    25    14    15 1   
    26    14    35 1   
    27    14    36 1   
    28    15    16 1   
    29    15    27 1   
    30    15    39 1   
    31    16    37 1   
    32    16    38 1   
    33    17    18 ar  
    34    17    33 1   
    35    18    19 ar  
    36    18    41 1   
    37    19    20 ar  
    38    19    42 1   
    39    20    21 ar  
    40    20    43 1   
    41    21    34 1   
    42    22    23 1   
    43    22    26 2   
    44    23    24 1   
    45    24    25 2   
    46    24    45 1   
    47    25    26 1   
    48    25    46 1   
    49    26    44 1   
    50    27    40 1   
@<TRIPOS>SUBSTRUCTURE
     1 VGA         1 TEMP              0 ****  ****    0 ROOT
