@<TRIPOS>MOLECULE
VGB
   52    54     1     0     0
SMALL
bcc


@<TRIPOS>ATOM
      1 CBA          0.0000     0.0000     0.0000 c3         1 VGB       0.021900
      2 CAN          1.5300     0.0000     0.0000 c3         1 VGB      -0.090400
      3 CAL          2.0320     0.0000     1.4210 c          1 VGB       0.575100
      4 OAM          1.2430    -0.0000     2.3420 o          1 VGB      -0.638100
      5 NAK          3.3570    -0.0010     1.6670 ns         1 VGB      -0.212900
      6 CAC          3.8450    -0.0010     3.0490 c3         1 VGB       0.100000
      7 CAB          5.2520     0.6090     3.0990 c3         1 VGB       0.154100
      8 OAG          5.1690     2.0200     2.8920 oh         1 VGB      -0.553800
      9 CAA          5.8650     0.3280     4.4760 c3         1 VGB       0.170100
     10 OAH          7.0910     1.0480     4.6080 oh         1 VGB      -0.558800
     11 CAF          6.1360    -1.1730     4.6100 c3         1 VGB      -0.134000
     12 CAI          6.5120    -1.4980     6.0570 c3         1 VGB       0.220400
     13 OAJ          6.8780    -2.8750     6.1580 oh         1 VGB      -0.609800
     14 NAE          4.9250    -1.9160     4.2400 na         1 VGB       0.604900
     15 CAQ          4.6620    -3.1970     4.5350 cc         1 VGB      -0.298300
     16 CAD          3.9220    -1.4190     3.5620 cc         1 VGB      -0.467900
     17 NAO          2.9870    -2.3780     3.4040 na         1 VGB       0.501900
     18 CAP          3.4560    -3.5060     4.0200 cd         1 VGB      -0.257600
     19 CAR          2.7580    -4.8390     4.1080 c3         1 VGB       0.064900
     20 CAS          1.9910    -4.9270     5.4290 c3         1 VGB       0.040900
     21 CAT          1.2930    -6.2600     5.5160 ca         1 VGB      -0.122300
     22 CAU          1.9380    -7.3420     6.0860 ca         1 VGB      -0.093500
     23 CAV          1.2980    -8.5640     6.1650 ca         1 VGB      -0.088000
     24 CAW          0.0110    -8.7050     5.6770 ca         1 VGB      -0.081000
     25 CAX         -0.6340    -7.6220     5.1090 ca         1 VGB      -0.088000
     26 CAY          0.0050    -6.3980     5.0330 ca         1 VGB      -0.093500
     27 HBA         -0.3610     0.0340    -1.0210 hc         1 VGB       0.016367
     28 HBAA        -0.3610     0.8670     0.5390 hc         1 VGB       0.016367
     29 HBAB        -0.3610    -0.9010     0.4810 hc         1 VGB       0.016367
     30 HAN          1.8910     0.8850    -0.5110 hc         1 VGB       0.035200
     31 HANA         1.8910    -0.8840    -0.5110 hc         1 VGB       0.035200
     32 HNAK         4.0080     0.0100     0.9070 hn         1 VGB       0.194500
     33 HAC          3.1770     0.5760     3.6770 h1         1 VGB       0.100700
     34 HAB          5.8680     0.1600     2.3300 h1         1 VGB       0.023700
     35 HOAG         5.7640     2.2730     2.2060 ho         1 VGB       0.418000
     36 HAA          5.1720     0.6390     5.2490 h1         1 VGB       0.032700
     37 HOAH         6.9650     1.7780     5.1910 ho         1 VGB       0.423000
     38 HAF          6.9470    -1.4530     3.9490 h1         1 VGB       0.092700
     39 HAI          5.6650    -1.3020     6.7030 h1         1 VGB       0.021700
     40 HAIA         7.3480    -0.8790     6.3600 h1         1 VGB       0.021700
     41 HOAJ         7.4330    -2.9990     6.9100 ho         1 VGB       0.430000
     42 HAQ          5.3080    -3.8670     5.0890 h4         1 VGB       0.217000
     43 HNAO         2.1130    -2.2830     2.9240 hn         1 VGB       0.172700
     44 HAR          3.4920    -5.6340     4.0630 hc         1 VGB       0.042700
     45 HARA         2.0660    -4.9390     3.2810 hc         1 VGB       0.042700
     46 HAS          1.2570    -4.1310     5.4750 hc         1 VGB       0.021200
     47 HASA         2.6830    -4.8280     6.2570 hc         1 VGB       0.021200
     48 HAU          2.9460    -7.2320     6.4690 ha         1 VGB       0.102000
     49 HAV          1.8030    -9.4130     6.6110 ha         1 VGB       0.111000
     50 HAW         -0.4900    -9.6630     5.7380 ha         1 VGB       0.113000
     51 HAX         -1.6420    -7.7310     4.7280 ha         1 VGB       0.111000
     52 HAY         -0.5000    -5.5500     4.5880 ha         1 VGB       0.102000
@<TRIPOS>BOND
     1     1     2 1   
     2     1    27 1   
     3     1    28 1   
     4     1    29 1   
     5     2     3 1   
     6     2    30 1   
     7     2    31 1   
     8     3     4 2   
     9     3     5 1   
    10     5     6 1   
    11     5    32 1   
    12     6     7 1   
    13     6    16 1   
    14     6    33 1   
    15     7     8 1   
    16     7     9 1   
    17     7    34 1   
    18     8    35 1   
    19     9    10 1   
    20     9    11 1   
    21     9    36 1   
    22    10    37 1   
    23    11    12 1   
    24    11    14 1   
    25    11    38 1   
    26    12    13 1   
    27    12    39 1   
    28    12    40 1   
    29    13    41 1   
    30    14    15 1   
    31    14    16 2   
    32    15    18 2   
    33    15    42 1   
    34    16    17 1   
    35    17    18 1   
    36    17    43 1   
    37    18    19 1   
    38    19    20 1   
    39    19    44 1   
    40    19    45 1   
    41    20    21 1   
    42    20    46 1   
    43    20    47 1   
    44    21    22 ar  
    45    21    26 ar  
    46    22    23 ar  
    47    22    48 1   
    48    23    24 ar  
    49    23    49 1   
    50    24    25 ar  
    51    24    50 1   
    52    25    26 ar  
    53    25    51 1   
    54    26    52 1   
@<TRIPOS>SUBSTRUCTURE
     1 VGB         1 TEMP              0 ****  ****    0 ROOT
