@<TRIPOS>MOLECULE
molecule
   52    54     1     0     0
SMALL
bcc


@<TRIPOS>ATOM
      1 CBA          0.0000     0.0000     0.0000 c3         1 VGB      -0.078100
      2 CAN          1.5300     0.0000     0.0000 c3         1 VGB      -0.156400
      3 CAL          2.0320     0.0000     1.4210 c          1 VGB       0.655100
      4 OAM          1.2430    -0.0000     2.3420 o          1 VGB      -0.600100
      5 NAK          3.3570    -0.0010     1.6670 ns         1 VGB      -0.590900
      6 CAC          3.8450    -0.0010     3.0490 c3         1 VGB       0.170000
      7 CAB          5.2520     0.6090     3.0990 c3         1 VGB       0.121100
      8 OAG          5.1690     2.0200     2.8920 oh         1 VGB      -0.571800
      9 CAA          5.8650     0.3280     4.4760 c3         1 VGB       0.121100
     10 OAH          7.0910     1.0480     4.6080 oh         1 VGB      -0.576800
     11 CAF          6.1360    -1.1730     4.6100 c3         1 VGB       0.026000
     12 CAI          6.5120    -1.4980     6.0570 c3         1 VGB       0.129400
     13 OAJ          6.8780    -2.8750     6.1580 oh         1 VGB      -0.623800
     14 NAE          4.9250    -1.9160     4.2400 na         1 VGB       0.032900
     15 CAQ          4.6620    -3.1970     4.5350 cc         1 VGB      -0.135300
     16 CAD          3.9220    -1.4190     3.5620 cc         1 VGB      -0.040900
     17 NAO          2.9870    -2.3780     3.4040 na         1 VGB      -0.100100
     18 CAP          3.4560    -3.5060     4.0200 cd         1 VGB      -0.082600
     19 CAR          2.7580    -4.8390     4.1080 c3         1 VGB      -0.014100
     20 CAS          1.9910    -4.9270     5.4290 c3         1 VGB      -0.028100
     21 CAT          1.2930    -6.2600     5.5160 ca         1 VGB      -0.111300
     22 CAU          1.9380    -7.3420     6.0860 ca         1 VGB      -0.121000
     23 CAV          1.2980    -8.5640     6.1650 ca         1 VGB      -0.118000
     24 CAW          0.0110    -8.7050     5.6770 ca         1 VGB      -0.111000
     25 CAX         -0.6340    -7.6220     5.1090 ca         1 VGB      -0.118000
     26 CAY          0.0050    -6.3980     5.0330 ca         1 VGB      -0.121000
     27 HBA         -0.3610     0.0340    -1.0210 hc         1 VGB       0.053700
     28 HBAA        -0.3610     0.8670     0.5390 hc         1 VGB       0.053700
     29 HBAB        -0.3610    -0.9010     0.4810 hc         1 VGB       0.053700
     30 HAN          1.8910     0.8850    -0.5110 hc         1 VGB       0.071700
     31 HANA         1.8910    -0.8840    -0.5110 hc         1 VGB       0.071700
     32 HNAK         4.0080     0.0100     0.9070 hn         1 VGB       0.335500
     33 HAC          3.1770     0.5760     3.6770 h1         1 VGB       0.140700
     34 HAB          5.8680     0.1600     2.3300 h1         1 VGB       0.061700
     35 HOAG         5.7640     2.2730     2.2060 ho         1 VGB       0.434000
     36 HAA          5.1720     0.6390     5.2490 h1         1 VGB       0.069700
     37 HOAH         6.9650     1.7780     5.1910 ho         1 VGB       0.440000
     38 HAF          6.9470    -1.4530     3.9490 h1         1 VGB       0.122700
     39 HAI          5.6650    -1.3020     6.7030 h1         1 VGB       0.063700
     40 HAIA         7.3480    -0.8790     6.3600 h1         1 VGB       0.063700
     41 HOAJ         7.4330    -2.9990     6.9100 ho         1 VGB       0.439000
     42 HAQ          5.3080    -3.8670     5.0890 h4         1 VGB       0.246000
     43 HNAO         2.1130    -2.2830     2.9240 hn         1 VGB       0.366700
     44 HAR          3.4920    -5.6340     4.0630 hc         1 VGB       0.082200
     45 HARA         2.0660    -4.9390     3.2810 hc         1 VGB       0.082200
     46 HAS          1.2570    -4.1310     5.4750 hc         1 VGB       0.055700
     47 HASA         2.6830    -4.8280     6.2570 hc         1 VGB       0.055700
     48 HAU          2.9460    -7.2320     6.4690 ha         1 VGB       0.127000
     49 HAV          1.8030    -9.4130     6.6110 ha         1 VGB       0.141000
     50 HAW         -0.4900    -9.6630     5.7380 ha         1 VGB       0.143000
     51 HAX         -1.6420    -7.7310     4.7280 ha         1 VGB       0.141000
     52 HAY         -0.5000    -5.5500     4.5880 ha         1 VGB       0.127000
@<TRIPOS>BOND
     1     1     2 1
     2     2     3 1
     3     3     4 2
     4     3     5 1
     5     5     6 1
     6     6     7 1
     7     6    16 1
     8     7     8 1
     9     7     9 1
    10     9    10 1
    11     9    11 1
    12    11    12 1
    13    11    14 1
    14    12    13 1
    15    14    15 1
    16    14    16 2
    17    15    18 2
    18    16    17 1
    19    17    18 1
    20    18    19 1
    21    19    20 1
    22    20    21 1
    23    21    22 ar
    24    21    26 ar
    25    22    23 ar
    26    23    24 ar
    27    24    25 ar
    28    25    26 ar
    29     1    27 1
    30     1    28 1
    31     1    29 1
    32     2    30 1
    33     2    31 1
    34     5    32 1
    35     6    33 1
    36     7    34 1
    37     8    35 1
    38     9    36 1
    39    10    37 1
    40    11    38 1
    41    12    39 1
    42    12    40 1
    43    13    41 1
    44    15    42 1
    45    17    43 1
    46    19    44 1
    47    19    45 1
    48    20    46 1
    49    20    47 1
    50    22    48 1
    51    23    49 1
    52    24    50 1
    53    25    51 1
    54    26    52 1
@<TRIPOS>SUBSTRUCTURE
     1 VGB         1 TEMP              0 ****  ****    0 ROOT
