@<TRIPOS>MOLECULE
molecule
   44    47     1     0     0
SMALL
bcc


@<TRIPOS>ATOM
      1 C15          0.0000     0.0000     0.0000 c3         1 VGC      -0.071900
      2 C18          1.5300     0.0000     0.0000 c3         1 VGC      -0.081400
      3 C19          2.0410     0.0000     1.4420 c3         1 VGC      -0.079400
      4 C17          1.5310     1.2500     2.1630 c3         1 VGC      -0.081400
      5 C16          0.0000     1.2490     2.1650 c3         1 VGC      -0.071900
      6 C14         -0.5100     1.2490     0.7220 c3         1 VGC       0.005600
      7 C5          -2.0170     1.2480     0.7230 cc         1 VGC      -0.094300
      8 C2          -2.8480     0.2610     1.2940 cc         1 VGC      -0.083100
      9 S1          -2.8000    -1.2630     2.1730 ss         1 VGC      -0.124800
     10 C3          -4.5540    -1.3400     2.2180 cc         1 VGC       0.027300
     11 C6          -5.3290    -2.4130     2.8400 c          1 VGC       0.900200
     12 O1          -4.6970    -3.4460     3.4350 o          1 VGC      -0.823800
     13 O2          -6.5460    -2.3760     2.8190 o          1 VGC      -0.823800
     14 C4          -5.0860    -0.2570     1.5930 cd         1 VGC      -0.183000
     15 C1          -4.1620     0.6390     1.0750 cd         1 VGC      -0.045300
     16 N1          -4.1270     1.8490     0.3760 na         1 VGC      -0.064100
     17 C20         -5.2950     2.6150    -0.0660 c3         1 VGC       0.043600
     18 C7          -2.8180     2.2020     0.1790 cd         1 VGC      -0.075300
     19 C8          -2.3530     3.4210    -0.5160 ca         1 VGC       0.014000
     20 C9          -2.9430     3.8090    -1.7210 ca         1 VGC      -0.124000
     21 C10         -2.5040     4.9480    -2.3640 ca         1 VGC      -0.133000
     22 C11         -1.4810     5.7040    -1.8180 ca         1 VGC      -0.144000
     23 C12         -0.8930     5.3250    -0.6250 ca         1 VGC      -0.133000
     24 C13         -1.3260     4.1920     0.0320 ca         1 VGC      -0.124000
     25 H151        -0.3600     0.0030    -1.0220 hc         1 VGC       0.051200
     26 H152        -0.3600    -0.8840     0.5120 hc         1 VGC       0.051200
     27 H181         1.8900     0.8860    -0.5090 hc         1 VGC       0.031200
     28 H182         1.8890    -0.8860    -0.5090 hc         1 VGC       0.031200
     29 H14         -0.1460     2.1320     0.2120 hc         1 VGC       0.046700
     30 H191         3.1240     0.0030     1.4400 hc         1 VGC       0.037200
     31 H192         1.6770    -0.8840     1.9520 hc         1 VGC       0.037200
     32 H171         1.8910     1.2480     3.1850 hc         1 VGC       0.031200
     33 H172         1.8900     2.1330     1.6500 hc         1 VGC       0.031200
     34 H161        -0.3590     0.3630     2.6740 hc         1 VGC       0.051200
     35 H162        -0.3590     2.1360     2.6730 hc         1 VGC       0.051200
     36 H4          -6.1550    -0.1040     1.5050 ha         1 VGC       0.153000
     37 H201        -5.0960     3.6740     0.0450 h1         1 VGC       0.042033
     38 H202        -5.5000     2.3930    -1.1060 h1         1 VGC       0.042033
     39 H203        -6.1530     2.3440     0.5370 h1         1 VGC       0.042033
     40 H9          -3.7430     3.2180    -2.1490 ha         1 VGC       0.140000
     41 H13         -0.8650     3.8960     0.9660 ha         1 VGC       0.140000
     42 H10         -2.9600     5.2500    -3.2990 ha         1 VGC       0.121500
     43 H11         -1.1380     6.5960    -2.3280 ha         1 VGC       0.118000
     44 H12         -0.0940     5.9230    -0.2020 ha         1 VGC       0.121500
@<TRIPOS>BOND
     1     1     2 1
     2     1     6 1
     3     2     3 1
     4     3     4 1
     5     4     5 1
     6     5     6 1
     7     6     7 1
     8     7     8 1
     9     7    18 2
    10     8     9 1
    11     8    15 2
    12     9    10 1
    13    10    11 1
    14    10    14 2
    15    11    12 1
    16    11    13 1
    17    14    15 1
    18    15    16 1
    19    16    17 1
    20    16    18 1
    21    18    19 1
    22    19    20 ar
    23    19    24 ar
    24    20    21 ar
    25    21    22 ar
    26    22    23 ar
    27    23    24 ar
    28     1    25 1
    29     1    26 1
    30     2    27 1
    31     2    28 1
    32     6    29 1
    33     3    30 1
    34     3    31 1
    35     4    32 1
    36     4    33 1
    37     5    34 1
    38     5    35 1
    39    14    36 1
    40    17    37 1
    41    17    38 1
    42    17    39 1
    43    20    40 1
    44    24    41 1
    45    21    42 1
    46    22    43 1
    47    23    44 1
@<TRIPOS>SUBSTRUCTURE
     1 VGC         1 TEMP              0 ****  ****    0 ROOT
