@<TRIPOS>MOLECULE
molecule
   17    18     1     0     0
SMALL
bcc


@<TRIPOS>ATOM
      1 ClA          0.0000     0.0000     0.0000 cl         1 VGD      -0.108400
      2 CAH          1.7360     0.0000     0.0000 ca         1 VGD       0.040400
      3 CAC          2.4260     0.0000     1.2040 ca         1 VGD      -0.140000
      4 CAD          3.8040     0.0000     1.2200 ca         1 VGD      -0.064000
      5 CAK          4.5110    -0.0010     0.0160 ca         1 VGD       0.097400
      6 CAJ          3.8080    -0.0010    -1.2000 ca         1 VGD      -0.084200
      7 CAE          2.4220    -0.0060    -1.1990 ca         1 VGD      -0.124000
      8 NAG          5.8370    -0.0010    -0.2880 nc         1 VGD      -0.606100
      9 CAI          5.9890    -0.0020    -1.5890 cd         1 VGD       0.645700
     10 NAF          4.7680    -0.0020    -2.2000 na         1 VGD      -0.279300
     11 NAA          7.2030    -0.0030    -2.2430 nv         1 VGD      -1.008800
     12 HAC          1.8770    -0.0000     2.1380 ha         1 VGD       0.147000
     13 HAD          4.3360     0.0000     2.1630 ha         1 VGD       0.150000
     14 HAE          1.8800     0.0610    -2.1340 ha         1 VGD       0.140000
     15 HNAF         4.5980    -0.0020    -3.1860 hn         1 VGD       0.301700
     16 HNAA         7.6500     0.8640    -2.4700 hn         1 VGD       0.446800
     17 HNAB         7.6480    -0.8700    -2.4700 hn         1 VGD       0.446800
@<TRIPOS>BOND
     1     1     2 1
     2     2     3 ar
     3     2     7 ar
     4     3     4 ar
     5     4     5 ar
     6     5     6 ar
     7     5     8 1
     8     6     7 ar
     9     6    10 1
    10     8     9 2
    11     9    10 1
    12     9    11 1
    13     3    12 1
    14     4    13 1
    15     7    14 1
    16    10    15 1
    17    11    16 1
    18    11    17 1
@<TRIPOS>SUBSTRUCTURE
     1 VGD         1 TEMP              0 ****  ****    0 ROOT
