@<TRIPOS>MOLECULE
VGD
   17    18     1     0     0
SMALL
bcc


@<TRIPOS>ATOM
      1 ClA          0.0000     0.0000     0.0000 cl         1 VGD      -0.031400
      2 CAH          1.7360     0.0000     0.0000 ca         1 VGD      -0.021600
      3 CAC          2.4260     0.0000     1.2040 ca         1 VGD      -0.120000
      4 CAD          3.8040     0.0000     1.2200 ca         1 VGD      -0.027000
      5 CAK          4.5110    -0.0010     0.0160 ca         1 VGD       0.067400
      6 CAJ          3.8080    -0.0010    -1.2000 ca         1 VGD      -0.259200
      7 CAE          2.4220    -0.0060    -1.1990 ca         1 VGD      -0.088000
      8 NAG          5.8370    -0.0010    -0.2880 nc         1 VGD      -0.524100
      9 CAI          5.9890    -0.0020    -1.5890 cd         1 VGD       0.300700
     10 NAF          4.7680    -0.0020    -2.2000 na         1 VGD       0.243700
     11 NAA          7.2030    -0.0030    -2.2430 nv         1 VGD      -0.558800
     12 HAC          1.8770    -0.0000     2.1380 ha         1 VGD       0.116000
     13 HAD          4.3360     0.0000     2.1630 ha         1 VGD       0.113000
     14 HAE          1.8800     0.0610    -2.1340 ha         1 VGD       0.111000
     15 HNAF         4.5980    -0.0020    -3.1860 hn         1 VGD       0.126700
     16 HNAA         7.6500     0.8640    -2.4700 hn         1 VGD       0.275800
     17 HNAB         7.6480    -0.8700    -2.4700 hn         1 VGD       0.275800
@<TRIPOS>BOND
     1     1     2 1   
     2     2     3 ar  
     3     2     7 ar  
     4     3     4 ar  
     5     3    12 1   
     6     4     5 ar  
     7     4    13 1   
     8     5     6 ar  
     9     5     8 1   
    10     6     7 ar  
    11     6    10 1   
    12     7    14 1   
    13     8     9 2   
    14     9    10 1   
    15     9    11 1   
    16    10    15 1   
    17    11    16 1   
    18    11    17 1   
@<TRIPOS>SUBSTRUCTURE
     1 VGD         1 TEMP              0 ****  ****    0 ROOT
