@<TRIPOS>MOLECULE
molecule
   40    43     1     0     0
SMALL
bcc


@<TRIPOS>ATOM
      1 CAN          0.0000     0.0000     0.0000 ca         1 VGF      -0.097000
      2 CAS          1.3830     0.0000     0.0000 ca         1 VGF       0.031400
      3 ClAC         2.2510     0.0000    -1.5040 cl         1 VGF      -0.085400
      4 CAR          2.0750     0.0000     1.1990 ca         1 VGF       0.038400
      5 ClAB         3.8110     0.0010     1.2010 cl         1 VGF      -0.083400
      6 CAK          1.3820     0.0010     2.3960 ca         1 VGF      -0.114000
      7 CAJ         -0.0010     0.0010     2.3950 ca         1 VGF      -0.107000
      8 CAQ         -0.6910    -0.0000     1.1970 ca         1 VGF      -0.107300
      9 CAO         -2.1980     0.0010     1.1970 c3         1 VGF       0.074600
     10 NAY         -2.6870    -1.3730     1.3390 na         1 VGF      -0.180300
     11 CAX         -3.0580    -2.2210     0.3100 ca         1 VGF      -0.082200
     12 CAU         -2.8550    -2.0570     2.5090 cc         1 VGF       0.677700
     13 NAA         -2.5870    -1.5550     3.7650 nv         1 VGF      -0.969800
     14 NAP         -3.3080    -3.2600     2.2600 nd         1 VGF      -0.669100
     15 CAW         -3.4550    -3.4220     0.9180 ca         1 VGF       0.129400
     16 CAM         -3.8910    -4.4870     0.1230 ca         1 VGF      -0.084000
     17 CAG         -3.9280    -4.3520    -1.2490 ca         1 VGF      -0.140000
     18 CAL         -3.5390    -3.1700    -1.8530 ca         1 VGF      -0.114000
     19 CAV         -3.1010    -2.0970    -1.0800 cp         1 VGF      -0.040000
     20 CAT         -2.6830    -0.8320    -1.7300 cp         1 VGF      -0.039000
     21 CAH         -1.6420    -0.8320    -2.6560 ca         1 VGF      -0.129000
     22 CAE         -1.2570     0.3490    -3.2570 ca         1 VGF      -0.130500
     23 CAD         -1.9010     1.5320    -2.9410 ca         1 VGF      -0.129000
     24 CAF         -2.9350     1.5370    -2.0220 ca         1 VGF      -0.130500
     25 CAI         -3.3330     0.3610    -1.4200 ca         1 VGF      -0.129000
     26 HAN         -0.5420    -0.0010    -0.9380 ha         1 VGF       0.170000
     27 HAK          1.9220     0.0010     3.3350 ha         1 VGF       0.151000
     28 HAJ         -0.5430     0.0010     3.3330 ha         1 VGF       0.131000
     29 HAO1        -2.5590     0.4190     0.2650 h1         1 VGF       0.079200
     30 HAO2        -2.5590     0.6000     2.0250 h1         1 VGF       0.079200
     31 HAA1        -2.6910    -2.1410     4.5700 hn         1 VGF       0.449300
     32 HAA2        -2.3320    -0.5940     3.8750 hn         1 VGF       0.449300
     33 HAM         -4.1990    -5.4170     0.5840 ha         1 VGF       0.142000
     34 HAG         -4.2670    -5.1800    -1.8590 ha         1 VGF       0.133000
     35 HAL         -3.5730    -3.0790    -2.9320 ha         1 VGF       0.136000
     36 HAH         -1.1360    -1.7570    -2.9040 ha         1 VGF       0.142500
     37 HAI         -4.1420     0.3670    -0.7000 ha         1 VGF       0.142500
     38 HAE         -0.4480     0.3500    -3.9770 ha         1 VGF       0.135000
     39 HAD         -1.5940     2.4570    -3.4140 ha         1 VGF       0.134000
     40 HAF         -3.4380     2.4660    -1.7800 ha         1 VGF       0.135000
@<TRIPOS>BOND
     1     1     2 ar
     2     1     8 ar
     3     2     3 1
     4     2     4 ar
     5     4     5 1
     6     4     6 ar
     7     6     7 ar
     8     7     8 ar
     9     8     9 1
    10     9    10 1
    11    10    11 1
    12    10    12 1
    13    11    15 ar
    14    11    19 ar
    15    12    13 1
    16    12    14 2
    17    14    15 1
    18    15    16 ar
    19    16    17 ar
    20    17    18 ar
    21    18    19 ar
    22    19    20 1
    23    20    21 ar
    24    20    25 ar
    25    21    22 ar
    26    22    23 ar
    27    23    24 ar
    28    24    25 ar
    29     1    26 1
    30     6    27 1
    31     7    28 1
    32     9    29 1
    33     9    30 1
    34    13    31 1
    35    13    32 1
    36    16    33 1
    37    17    34 1
    38    18    35 1
    39    21    36 1
    40    25    37 1
    41    22    38 1
    42    23    39 1
    43    24    40 1
@<TRIPOS>SUBSTRUCTURE
     1 VGF         1 TEMP              0 ****  ****    0 ROOT
