@<TRIPOS>MOLECULE
molecule
   43    45     1     0     0
SMALL
bcc


@<TRIPOS>ATOM
      1 C20          0.0000     0.0000     0.0000 c3         1 VGG      -0.100100
      2 C19          1.5300     0.0000     0.0000 c3         1 VGG       0.095700
      3 C21          2.0400     0.0000     1.4420 c3         1 VGG      -0.100100
      4 C22          2.0410    -1.2490    -0.7220 c3         1 VGG      -0.100100
      5 N7           2.0180     1.1970    -0.6900 na         1 VGG      -0.017800
      6 N8           1.2210     2.1950    -1.2660 nc         1 VGG      -0.501100
      7 C3           3.3260     1.5330    -0.8790 ca         1 VGG       0.523800
      8 N2           4.4910     0.9780    -0.5510 nb         1 VGG      -0.794000
      9 C1           5.6250     1.5550    -0.8800 ca         1 VGG       0.742900
     10 N6           5.6780     2.6980    -1.5400 nb         1 VGG      -0.824000
     11 C5           4.5700     3.3300    -1.9120 ca         1 VGG       0.787200
     12 N10          4.6350     4.5240    -2.6020 nv         1 VGG      -1.039500
     13 C4           3.3290     2.7520    -1.5840 ca         1 VGG      -0.519500
     14 C9           1.9800     3.1110    -1.7950 cd         1 VGG       0.400900
     15 C11          1.5000     4.3490    -2.5090 c3         1 VGG      -0.030400
     16 C12          1.1870     5.4230    -1.4990 ca         1 VGG      -0.081300
     17 C13          2.1710     6.3110    -1.1080 ca         1 VGG      -0.119000
     18 C17         -0.0860     5.5220    -0.9680 ca         1 VGG      -0.117000
     19 C16         -0.3730     6.5070    -0.0410 ca         1 VGG      -0.125000
     20 C15          0.6130     7.3920     0.3550 ca         1 VGG      -0.125000
     21 C14          1.8850     7.2960    -0.1810 ca         1 VGG      -0.083300
     22 C18          2.9570     8.2640     0.2450 c3         1 VGG      -0.047800
     23 H201        -0.3610     0.9050     0.4740 hc         1 VGG       0.050367
     24 H202        -0.3610    -0.8630     0.5460 hc         1 VGG       0.050367
     25 H203        -0.3610    -0.0420    -1.0210 hc         1 VGG       0.050367
     26 H211         3.1000    -0.2210     1.4500 hc         1 VGG       0.050367
     27 H212         1.8700     0.9740     1.8850 hc         1 VGG       0.050367
     28 H213         1.5100    -0.7530     2.0120 hc         1 VGG       0.050367
     29 H221         3.1060    -1.3520    -0.5530 hc         1 VGG       0.050367
     30 H222         1.8510    -1.1550    -1.7840 hc         1 VGG       0.050367
     31 H223         1.5280    -2.1230    -0.3380 hc         1 VGG       0.050367
     32 H1           6.5540     1.0750    -0.5960 h5         1 VGG       0.059100
     33 H101         5.2310     5.2590    -2.2760 hn         1 VGG       0.443300
     34 H102         4.1260     4.6360    -3.4570 hn         1 VGG       0.443300
     35 H111         2.2730     4.7000    -3.1810 hc         1 VGG       0.060200
     36 H112         0.6070     4.1150    -3.0760 hc         1 VGG       0.060200
     37 H13          3.1670     6.2360    -1.5270 ha         1 VGG       0.131000
     38 H17         -0.8580     4.8280    -1.2780 ha         1 VGG       0.136000
     39 H16         -1.3690     6.5840     0.3770 ha         1 VGG       0.130000
     40 H15          0.3890     8.1640     1.0810 ha         1 VGG       0.130000
     41 H181         3.8730     7.7230     0.4470 hc         1 VGG       0.043033
     42 H182         3.1290     8.9840    -0.5460 hc         1 VGG       0.043033
     43 H183         2.6400     8.7820     1.1420 hc         1 VGG       0.043033
@<TRIPOS>BOND
     1     1     2 1
     2     2     3 1
     3     2     4 1
     4     2     5 1
     5     5     6 1
     6     5     7 1
     7     6    14 2
     8     7     8 ar
     9     7    13 ar
    10     8     9 ar
    11     9    10 ar
    12    10    11 ar
    13    11    12 1
    14    11    13 ar
    15    13    14 1
    16    14    15 1
    17    15    16 1
    18    16    17 ar
    19    16    18 ar
    20    17    21 ar
    21    18    19 ar
    22    19    20 ar
    23    20    21 ar
    24    21    22 1
    25     1    23 1
    26     1    24 1
    27     1    25 1
    28     3    26 1
    29     3    27 1
    30     3    28 1
    31     4    29 1
    32     4    30 1
    33     4    31 1
    34     9    32 1
    35    12    33 1
    36    12    34 1
    37    15    35 1
    38    15    36 1
    39    17    37 1
    40    18    38 1
    41    19    39 1
    42    20    40 1
    43    22    41 1
    44    22    42 1
    45    22    43 1
@<TRIPOS>SUBSTRUCTURE
     1 VGG         1 TEMP              0 ****  ****    0 ROOT
