@<TRIPOS>MOLECULE
VGH
   52    55     1     0     0
SMALL
bcc


@<TRIPOS>ATOM
      1 Cl           0.0000     0.0000     0.0000 cl         1 VGH      -0.005400
      2 C13          1.7350     0.0000     0.0000 ca         1 VGH      -0.034600
      3 C3           2.4270     0.0000     1.1990 ca         1 VGH      -0.075000
      4 C2           3.8100    -0.0010     1.2000 ca         1 VGH      -0.110000
      5 C12          4.5020    -0.0010     0.0010 ca         1 VGH       0.109900
      6 F            5.8540    -0.0020     0.0020 f          1 VGH      -0.118900
      7 C17          2.4270    -0.0060    -1.1980 ca         1 VGH      -0.069300
      8 C18          3.8100    -0.0010    -1.1980 ca         1 VGH      -0.051600
      9 Cl2          4.6780    -0.0020    -2.7020 cl         1 VGH       0.043600
     10 C21          1.6730    -0.0130    -2.5030 c3         1 VGH       0.204400
     11 C1           1.7410     1.3770    -3.1380 c3         1 VGH      -0.036100
     12 O27          2.2590    -0.9700    -3.3870 os         1 VGH      -0.276900
     13 C15          1.4560    -1.4940    -4.3510 ca         1 VGH       0.042800
     14 C4           0.1660    -1.0220    -4.5220 ca         1 VGH      -0.198000
     15 C19          1.9230    -2.5120    -5.1840 ca         1 VGH       0.447200
     16 N22          3.2210    -2.9920    -5.0250 nv         1 VGH      -0.642500
     17 N23          1.1470    -3.0260    -6.1250 nb         1 VGH      -0.547000
     18 C5          -0.0880    -2.6050    -6.3140 ca         1 VGH       0.350200
     19 C14         -0.6230    -1.5910    -5.5270 ca         1 VGH      -0.044300
     20 C16         -2.0140    -1.1200    -5.7500 cc         1 VGH      -0.273300
     21 C6          -2.6750    -0.1070    -5.0290 cc         1 VGH       0.406200
     22 C7          -2.8810    -1.5850    -6.6950 cd         1 VGH      -0.234300
     23 N26         -4.0340    -0.8970    -6.5650 na         1 VGH       0.507400
     24 N24         -3.8800     0.0200    -5.5180 nd         1 VGH      -0.650800
     25 C20         -5.2370    -1.0760    -7.3800 c3         1 VGH      -0.043000
     26 C8          -5.1170    -0.2440    -8.6590 c3         1 VGH      -0.041900
     27 C10         -6.3500    -0.4820    -9.5340 c3         1 VGH       0.152800
     28 N25         -6.4480    -1.9090    -9.8650 n7         1 VGH      -0.581200
     29 C11         -6.6130    -2.7240    -8.6550 c3         1 VGH       0.152800
     30 C9          -5.3880    -2.5540    -7.7540 c3         1 VGH      -0.041900
     31 H3           1.8850     0.0000     2.1370 ha         1 VGH       0.121000
     32 H2           4.3510    -0.0010     2.1390 ha         1 VGH       0.125000
     33 H21          0.6380    -0.2770    -2.3210 h1         1 VGH       0.041700
     34 H11C         2.3510     2.0260    -2.5220 hc         1 VGH       0.021367
     35 H12C         2.1790     1.3010    -4.1260 hc         1 VGH       0.021367
     36 H13C         0.7420     1.7880    -3.2170 hc         1 VGH       0.021367
     37 H4          -0.2240    -0.2300    -3.8920 ha         1 VGH       0.133000
     38 H221         3.9680    -2.6000    -5.5640 hn         1 VGH       0.273300
     39 H222         3.3970    -3.7630    -4.4120 hn         1 VGH       0.273300
     40 H5          -0.6920    -3.0520    -7.0950 h4         1 VGH      -0.018900
     41 H6          -2.2580     0.4650    -4.2090 h4         1 VGH       0.004100
     42 H7          -2.6800    -2.3670    -7.4170 h4         1 VGH       0.157000
     43 H20         -6.1090    -0.7550    -6.8220 h1         1 VGH       0.056700
     44 H81C        -4.2280    -0.5420    -9.2010 hc         1 VGH       0.032200
     45 H82C        -5.0550     0.8060    -8.4020 hc         1 VGH       0.032200
     46 H91C        -5.5190    -3.1420    -6.8530 hc         1 VGH       0.032200
     47 H92C        -4.5020    -2.8840    -8.2830 hc         1 VGH       0.032200
     48 H101        -7.2380    -0.1750    -8.9960 h1         1 VGH       0.010200
     49 H102        -6.2580     0.0940   -10.4480 h1         1 VGH       0.010200
     50 H25         -7.2270    -2.0570   -10.4750 hn         1 VGH       0.256800
     51 H111        -7.4990    -2.4020    -8.1220 h1         1 VGH       0.010200
     52 H112        -6.7120    -3.7660    -8.9340 h1         1 VGH       0.010200
@<TRIPOS>BOND
     1     1     2 1   
     2     2     3 ar  
     3     2     7 ar  
     4     3     4 ar  
     5     3    31 1   
     6     4     5 ar  
     7     4    32 1   
     8     5     6 1   
     9     5     8 ar  
    10     7     8 ar  
    11     7    10 1   
    12     8     9 1   
    13    10    11 1   
    14    10    12 1   
    15    10    33 1   
    16    11    34 1   
    17    11    35 1   
    18    11    36 1   
    19    12    13 1   
    20    13    14 ar  
    21    13    15 ar  
    22    14    19 ar  
    23    14    37 1   
    24    15    16 1   
    25    15    17 ar  
    26    16    38 1   
    27    16    39 1   
    28    17    18 ar  
    29    18    19 ar  
    30    18    40 1   
    31    19    20 1   
    32    20    21 1   
    33    20    22 2   
    34    21    24 2   
    35    21    41 1   
    36    22    23 1   
    37    22    42 1   
    38    23    24 1   
    39    23    25 1   
    40    25    26 1   
    41    25    30 1   
    42    25    43 1   
    43    26    27 1   
    44    26    44 1   
    45    26    45 1   
    46    27    28 1   
    47    27    48 1   
    48    27    49 1   
    49    28    29 1   
    50    28    50 1   
    51    29    30 1   
    52    29    51 1   
    53    29    52 1   
    54    30    46 1   
    55    30    47 1   
@<TRIPOS>SUBSTRUCTURE
     1 VGH         1 TEMP              0 ****  ****    0 ROOT
