@<TRIPOS>MOLECULE
molecule
   41    44     1     0     0
SMALL
bcc


@<TRIPOS>ATOM
      1 C14          0.0000     0.0000     0.0000 ca         1 VGI      -0.077000
      2 C15          1.3820     0.0000     0.0000 ca         1 VGI      -0.014900
      3 Br1          2.3260     0.0010    -1.6380 br         1 VGI      -0.094100
      4 C16          2.0750     0.0000     1.1970 ca         1 VGI      -0.094000
      5 C17          1.3880    -0.0020     2.3970 ca         1 VGI      -0.124000
      6 C18          0.0060    -0.0030     2.4040 ca         1 VGI      -0.090000
      7 C13         -0.6920    -0.0010     1.2040 ca         1 VGI       0.047600
      8 N2          -2.0940    -0.0020     1.2070 n          1 VGI      -0.390600
      9 C9          -2.7420    -1.1830     1.2100 c          1 VGI       0.730100
     10 O1          -2.1070    -2.2200     1.2110 o          1 VGI      -0.610500
     11 C12         -2.7420     1.1780     1.2130 c          1 VGI       0.723100
     12 O2          -2.1090     2.2170     1.2140 o          1 VGI      -0.604500
     13 C8          -4.2110     1.2160     1.2170 ca         1 VGI      -0.176600
     14 C10         -4.9180     2.4110     1.2230 ca         1 VGI      -0.018000
     15 C11         -6.3060     2.4000     1.2270 ca         1 VGI      -0.168000
     16 C7          -7.0130     1.2190     1.2260 ca         1 VGI      -0.062000
     17 C1          -6.3310    -0.0070     1.2200 ca         1 VGI      -0.116000
     18 C2          -4.9230    -0.0060     1.2150 ca         1 VGI       0.061000
     19 C3          -4.2060    -1.2260     1.2150 ca         1 VGI      -0.244600
     20 C4          -4.9080    -2.4270     1.2180 ca         1 VGI       0.033000
     21 C5          -6.2910    -2.4300     1.2220 ca         1 VGI      -0.269000
     22 C6          -7.0150    -1.2460     1.2180 ca         1 VGI       0.261600
     23 N1          -8.3960    -1.2770     1.2230 nu         1 VGI      -0.790600
     24 C19         -9.1010    -2.5610     1.2210 c3         1 VGI       0.232800
     25 C20        -10.6110    -2.3150     1.2270 c3         1 VGI       0.122400
     26 O3         -10.9930    -1.6720     0.0100 oh         1 VGI      -0.608800
     27 H14         -0.5420     0.0010    -0.9380 ha         1 VGI       0.152000
     28 H16          3.1580     0.0000     1.1950 ha         1 VGI       0.143000
     29 H17          1.9340    -0.0020     3.3330 ha         1 VGI       0.139000
     30 H18         -0.5310    -0.0040     3.3440 ha         1 VGI       0.142000
     31 H10         -4.3850     3.3540     1.2240 ha         1 VGI       0.158000
     32 H11         -6.8440     3.3400     1.2310 ha         1 VGI       0.139000
     33 H7          -8.0970     1.2360     1.2300 ha         1 VGI       0.128000
     34 H4          -4.3680    -3.3670     1.2210 ha         1 VGI       0.157000
     35 H5          -6.8210    -3.3750     1.2280 ha         1 VGI       0.138000
     36 H1          -8.9160    -0.4210     1.2450 hn         1 VGI       0.451800
     37 H191        -8.8300    -3.1200     0.3340 h1         1 VGI       0.057700
     38 H192        -8.8230    -3.1260     2.1030 h1         1 VGI       0.057700
     39 H201       -11.1310    -3.2610     1.3150 h1         1 VGI       0.034200
     40 H202       -10.8700    -1.6820     2.0670 h1         1 VGI       0.034200
     41 H3         -11.9310    -1.7050    -0.0820 ho         1 VGI       0.410000
@<TRIPOS>BOND
     1     1     2 ar
     2     1     7 ar
     3     2     3 1
     4     2     4 ar
     5     4     5 ar
     6     5     6 ar
     7     6     7 ar
     8     7     8 1
     9     8     9 1
    10     8    11 1
    11     9    10 2
    12     9    19 1
    13    11    12 2
    14    11    13 1
    15    13    14 ar
    16    13    18 ar
    17    14    15 ar
    18    15    16 ar
    19    16    17 ar
    20    17    18 ar
    21    17    22 ar
    22    18    19 ar
    23    19    20 ar
    24    20    21 ar
    25    21    22 ar
    26    22    23 1
    27    23    24 1
    28    24    25 1
    29    25    26 1
    30     1    27 1
    31     4    28 1
    32     5    29 1
    33     6    30 1
    34    14    31 1
    35    15    32 1
    36    16    33 1
    37    20    34 1
    38    21    35 1
    39    23    36 1
    40    24    37 1
    41    24    38 1
    42    25    39 1
    43    25    40 1
    44    26    41 1
@<TRIPOS>SUBSTRUCTURE
     1 VGI         1 TEMP              0 ****  ****    0 ROOT
