@<TRIPOS>MOLECULE
molecule
   61    60     1     0     0
SMALL
bcc


@<TRIPOS>ATOM
      1 O1           0.0000     0.0000     0.0000 o          1 VGJ      -0.857800
      2 C15          1.3420     0.0000     0.0000 c          1 VGJ       0.889600
      3 O2           1.9460     0.0000     1.0470 o          1 VGJ      -0.857800
      4 C14          2.0960    -0.0020    -1.3050 c3         1 VGJ      -0.179400
      5 C13          3.6000    -0.0010    -1.0260 c3         1 VGJ      -0.055700
      6 C16          3.9900     1.3070    -0.3330 c3         1 VGJ      -0.069100
      7 C12          4.3640    -0.1280    -2.3450 c3         1 VGJ      -0.081400
      8 C11          5.8620    -0.2520    -2.0570 c3         1 VGJ      -0.083400
      9 C10          6.6260    -0.3790    -3.3760 c3         1 VGJ      -0.078400
     10 C9           8.1230    -0.5040    -3.0890 c3         1 VGJ      -0.074700
     11 C17          8.3910    -1.8110    -2.3390 c3         1 VGJ      -0.091100
     12 C8           8.8980    -0.5050    -4.4090 c3         1 VGJ      -0.077400
     13 C7          10.4000    -0.5050    -4.1180 c3         1 VGJ      -0.084400
     14 C6          11.1750    -0.5060    -5.4370 c3         1 VGJ      -0.077400
     15 C5          12.6770    -0.5050    -5.1470 c3         1 VGJ      -0.074700
     16 C18         13.0620    -1.8120    -4.4500 c3         1 VGJ      -0.092100
     17 C4          13.4500    -0.3800    -6.4610 c3         1 VGJ      -0.077400
     18 C3          14.9460    -0.2540    -6.1620 c3         1 VGJ      -0.085400
     19 C2          15.7190    -0.1300    -7.4760 c3         1 VGJ      -0.076400
     20 C1          17.2140    -0.0040    -7.1780 c3         1 VGJ      -0.077700
     21 C19         17.7170    -1.2980    -6.5330 c3         1 VGJ      -0.087600
     22 C20         17.9750     0.2450    -8.4820 c3         1 VGJ      -0.087600
     23 H141         1.8340    -0.8870    -1.8720 hc         1 VGJ       0.027700
     24 H142         1.8340     0.8820    -1.8750 hc         1 VGJ       0.027700
     25 H13          3.8480    -0.8370    -0.3830 hc         1 VGJ       0.057700
     26 H161         4.6060     1.8990    -1.0000 hc         1 VGJ       0.025033
     27 H162         4.5450     1.0850     0.5700 hc         1 VGJ       0.025033
     28 H163         3.0950     1.8620    -0.0800 hc         1 VGJ       0.025033
     29 H121         4.1850     0.7520    -2.9520 hc         1 VGJ       0.029200
     30 H122         4.0240    -1.0080    -2.8760 hc         1 VGJ       0.029200
     31 H111         6.0400    -1.1320    -1.4500 hc         1 VGJ       0.041700
     32 H112         6.2020     0.6280    -1.5250 hc         1 VGJ       0.041700
     33 H101         6.4470     0.5000    -3.9830 hc         1 VGJ       0.036200
     34 H102         6.2850    -1.2600    -3.9080 hc         1 VGJ       0.036200
     35 H9           8.4450     0.3330    -2.4820 hc         1 VGJ       0.048700
     36 H171         8.7950    -1.5880    -1.3590 hc         1 VGJ       0.033367
     37 H172         7.4650    -2.3620    -2.2310 hc         1 VGJ       0.033367
     38 H173         9.1040    -2.4070    -2.8960 hc         1 VGJ       0.033367
     39 H81C         8.6400    -1.3900    -4.9780 hc         1 VGJ       0.038700
     40 H82C         8.6400     0.3790    -4.9790 hc         1 VGJ       0.038700
     41 H71C        10.6580    -1.3890    -3.5470 hc         1 VGJ       0.042700
     42 H72C        10.6570     0.3800    -3.5480 hc         1 VGJ       0.042700
     43 H61C        10.9180    -1.3910    -6.0060 hc         1 VGJ       0.039700
     44 H62C        10.9170     0.3780    -6.0080 hc         1 VGJ       0.039700
     45 H5          12.9200     0.3330    -4.5040 hc         1 VGJ       0.049700
     46 H181        13.3300    -1.6070    -3.4200 hc         1 VGJ       0.034367
     47 H182        13.9070    -2.2580    -4.9600 hc         1 VGJ       0.034367
     48 H183        12.2220    -2.4960    -4.4750 hc         1 VGJ       0.034367
     49 H41C        13.2760    -1.2610    -7.0670 hc         1 VGJ       0.040200
     50 H42C        13.1140     0.4990    -6.9960 hc         1 VGJ       0.040200
     51 H31C        15.1200     0.6260    -5.5560 hc         1 VGJ       0.043200
     52 H32C        15.2820    -1.1340    -5.6270 hc         1 VGJ       0.043200
     53 H21C        15.3830     0.7500    -8.0110 hc         1 VGJ       0.040200
     54 H22C        15.5440    -1.0100    -8.0830 hc         1 VGJ       0.040200
     55 HA          17.3790     0.8240    -6.5000 hc         1 VGJ       0.048700
     56 H191        18.7900    -1.3720    -6.6620 hc         1 VGJ       0.032033
     57 H192        17.4790    -1.2900    -5.4760 hc         1 VGJ       0.032033
     58 H193        17.2370    -2.1460    -7.0050 hc         1 VGJ       0.032033
     59 H201        19.0360     0.3100    -8.2750 hc         1 VGJ       0.032033
     60 H202        17.7900    -0.5710    -9.1700 hc         1 VGJ       0.032033
     61 H203        17.6360     1.1740    -8.9260 hc         1 VGJ       0.032033
@<TRIPOS>BOND
     1     1     2 1
     2     2     3 1
     3     2     4 1
     4     4     5 1
     5     5     6 1
     6     5     7 1
     7     7     8 1
     8     8     9 1
     9     9    10 1
    10    10    11 1
    11    10    12 1
    12    12    13 1
    13    13    14 1
    14    14    15 1
    15    15    16 1
    16    15    17 1
    17    17    18 1
    18    18    19 1
    19    19    20 1
    20    20    21 1
    21    20    22 1
    22     4    23 1
    23     4    24 1
    24     5    25 1
    25     6    26 1
    26     6    27 1
    27     6    28 1
    28     7    29 1
    29     7    30 1
    30     8    31 1
    31     8    32 1
    32     9    33 1
    33     9    34 1
    34    10    35 1
    35    11    36 1
    36    11    37 1
    37    11    38 1
    38    12    39 1
    39    12    40 1
    40    13    41 1
    41    13    42 1
    42    14    43 1
    43    14    44 1
    44    15    45 1
    45    16    46 1
    46    16    47 1
    47    16    48 1
    48    17    49 1
    49    17    50 1
    50    18    51 1
    51    18    52 1
    52    19    53 1
    53    19    54 1
    54    20    55 1
    55    21    56 1
    56    21    57 1
    57    21    58 1
    58    22    59 1
    59    22    60 1
    60    22    61 1
@<TRIPOS>SUBSTRUCTURE
     1 VGJ         1 TEMP              0 ****  ****    0 ROOT
