@<TRIPOS>MOLECULE
VGJ
   61    60     1     0     0
SMALL
bcc


@<TRIPOS>ATOM
      1 O1          1.1130    1.9160    0.0740 o         1 VGJ     -0.852300
      2 C15         1.2960    0.7660   -0.4230 c         1 VGJ      0.907600
      3 O2          0.7660   -0.2880    0.0350 o         1 VGJ     -0.852300
      4 C14         2.2040    0.6390   -1.6600 c3        1 VGJ     -0.192400
      5 C13         3.6660    0.5350   -1.2580 c3        1 VGJ     -0.046700
      6 C16         4.1660    1.8660   -0.7370 c3        1 VGJ     -0.094100
      7 C12         4.5030    0.0460   -2.4330 c3        1 VGJ     -0.076400
      8 C11         5.9260   -0.2810   -2.0310 c3        1 VGJ     -0.079400
      9 C10         6.7100   -0.8420   -3.2000 c3        1 VGJ     -0.076400
     10 C9          8.1670   -1.1150   -2.8480 c3        1 VGJ     -0.065700
     11 C17         8.2880   -2.3420   -1.9680 c3        1 VGJ     -0.088100
     12 C8          8.9860   -1.2760   -4.1230 c3        1 VGJ     -0.076400
     13 C7         10.4760   -1.1900   -3.8680 c3        1 VGJ     -0.079400
     14 C6         11.2540   -1.2850   -5.1630 c3        1 VGJ     -0.076400
     15 C5         12.7570   -1.1580   -4.9490 c3        1 VGJ     -0.065700
     16 C18        13.3240   -2.4250   -4.3410 c3        1 VGJ     -0.088100
     17 C4         13.4420   -0.8350   -6.2700 c3        1 VGJ     -0.076400
     18 C3         14.8630   -0.3450   -6.0810 c3        1 VGJ     -0.079400
     19 C2         15.4860    0.0390   -7.4070 c3        1 VGJ     -0.076400
     20 C1         16.9100    0.5510   -7.2500 c3        1 VGJ     -0.068700
     21 C19        17.8800   -0.5820   -6.9890 c3        1 VGJ     -0.089600
     22 C20        17.3270    1.3190   -8.4890 c3        1 VGJ     -0.089600
     23 H141        1.9030   -0.2750   -2.2300 hc        1 VGJ      0.021200
     24 H142        2.0550    1.5320   -2.3170 hc        1 VGJ      0.021200
     25 H13         3.7410   -0.2250   -0.4290 hc        1 VGJ      0.051700
     26 H161        5.1360    1.7440   -0.1980 hc        1 VGJ      0.031700
     27 H162        4.3170    2.5880   -1.5760 hc        1 VGJ      0.031700
     28 H163        3.4020    2.2920   -0.0350 hc        1 VGJ      0.031700
     29 H121        4.5100    0.8280   -3.2370 hc        1 VGJ      0.028200
     30 H122        4.0250   -0.8720   -2.8660 hc        1 VGJ      0.028200
     31 H111        6.4310    0.6460   -1.6510 hc        1 VGJ      0.038200
     32 H112        5.9130   -1.0200   -1.1880 hc        1 VGJ      0.038200
     33 H101        6.6640   -0.1100   -4.0490 hc        1 VGJ      0.035200
     34 H102        6.2290   -1.7910   -3.5550 hc        1 VGJ      0.035200
     35 H9          8.5660   -0.2280   -2.2800 hc        1 VGJ      0.046700
     36 H171        9.3500   -2.5090   -1.6690 hc        1 VGJ      0.031367
     37 H172        7.9250   -3.2500   -2.5070 hc        1 VGJ      0.031367
     38 H173        7.6780   -2.2150   -1.0410 hc        1 VGJ      0.031367
     39 H81C        8.6950   -0.4720   -4.8510 hc        1 VGJ      0.037700
     40 H82C        8.7410   -2.2600   -4.6010 hc        1 VGJ      0.037700
     41 H71C       10.7140   -0.2190   -3.3570 hc        1 VGJ      0.039700
     42 H72C       10.7890   -2.0140   -3.1750 hc        1 VGJ      0.039700
     43 H61C       11.0310   -2.2620   -5.6670 hc        1 VGJ      0.038700
     44 H62C       10.9080   -0.4700   -5.8540 hc        1 VGJ      0.038700
     45 H5         12.9430   -0.3050   -4.2360 hc        1 VGJ      0.047700
     46 H181       12.8160   -2.6540   -3.3730 hc        1 VGJ      0.031700
     47 H182       13.1780   -3.2910   -5.0290 hc        1 VGJ      0.031700
     48 H183       14.4170   -2.3100   -4.1440 hc        1 VGJ      0.031700
     49 H41C       13.4420   -1.7470   -6.9230 hc        1 VGJ      0.038700
     50 H42C       12.8550   -0.0430   -6.8070 hc        1 VGJ      0.038700
     51 H31C       14.8660    0.5410   -5.3930 hc        1 VGJ      0.039700
     52 H32C       15.4780   -1.1450   -5.5920 hc        1 VGJ      0.039700
     53 H21C       15.4800   -0.8460   -8.0960 hc        1 VGJ      0.039200
     54 H22C       14.8590    0.8370   -7.8870 hc        1 VGJ      0.039200
     55 HA         16.9410    1.2550   -6.3710 hc        1 VGJ      0.046700
     56 H191       18.9160   -0.1830   -6.8650 hc        1 VGJ      0.031700
     57 H192       17.8800   -1.3030   -7.8410 hc        1 VGJ      0.031700
     58 H193       17.5990   -1.1330   -6.0600 hc        1 VGJ      0.031700
     59 H201       18.3770    1.6850   -8.3830 hc        1 VGJ      0.031700
     60 H202       17.2690    0.6650   -9.3920 hc        1 VGJ      0.031700
     61 H203       16.6590    2.1990   -8.6460 hc        1 VGJ      0.031700
@<TRIPOS>BOND
     1    1    2 1   
     2    2    3 1   
     3    2    4 1   
     4    4    5 1   
     5    4   23 1   
     6    4   24 1   
     7    5    6 1   
     8    5    7 1   
     9    5   25 1   
    10    6   26 1   
    11    6   27 1   
    12    6   28 1   
    13    7    8 1   
    14    7   29 1   
    15    7   30 1   
    16    8    9 1   
    17    8   31 1   
    18    8   32 1   
    19    9   10 1   
    20    9   33 1   
    21    9   34 1   
    22   10   11 1   
    23   10   12 1   
    24   10   35 1   
    25   11   36 1   
    26   11   37 1   
    27   11   38 1   
    28   12   13 1   
    29   12   39 1   
    30   12   40 1   
    31   13   14 1   
    32   13   41 1   
    33   13   42 1   
    34   14   15 1   
    35   14   43 1   
    36   14   44 1   
    37   15   16 1   
    38   15   17 1   
    39   15   45 1   
    40   16   46 1   
    41   16   47 1   
    42   16   48 1   
    43   17   18 1   
    44   17   49 1   
    45   17   50 1   
    46   18   19 1   
    47   18   51 1   
    48   18   52 1   
    49   19   20 1   
    50   19   53 1   
    51   19   54 1   
    52   20   21 1   
    53   20   22 1   
    54   20   55 1   
    55   21   56 1   
    56   21   57 1   
    57   21   58 1   
    58   22   59 1   
    59   22   60 1   
    60   22   61 1   
@<TRIPOS>SUBSTRUCTURE
     1 VGJ         1 TEMP              0 ****  ****    0 ROOT
