@<TRIPOS>MOLECULE
molecule
   47    49     1     0     0
SMALL
bcc


@<TRIPOS>ATOM
      1 C01          0.0000     0.0000     0.0000 c3         1 VGK       0.126200
      2 O02          1.4290     0.0000     0.0000 os         1 VGK      -0.318400
      3 C03          2.0450     0.0000     1.2120 ca         1 VGK       0.160100
      4 C04          1.2910    -0.0000     2.3730 ca         1 VGK      -0.256000
      5 C05          1.9230     0.0000     3.6140 cp         1 VGK       0.071000
      6 C06          1.1160    -0.0000     4.8590 cp         1 VGK      -0.243300
      7 C07         -0.2760    -0.0010     4.7960 ca         1 VGK       0.468200
      8 N08         -1.0050    -0.0010     5.8950 nb         1 VGK      -0.777000
      9 C09         -0.4550    -0.0010     7.0990 ca         1 VGK       0.713200
     10 N10         -1.2650    -0.0020     8.2240 nv         1 VGK      -1.005500
     11 C11          0.9410    -0.0010     7.2480 cp         1 VGK      -0.189300
     12 C12          1.5530    -0.0010     8.5970 cp         1 VGK      -0.085000
     13 C13          1.1340     0.9240     9.5530 ca         1 VGK      -0.151500
     14 C14          1.7000     0.9250    10.8030 ca         1 VGK      -0.103500
     15 C15          2.6970    -0.0030    11.1170 ca         1 VGK      -0.090600
     16 C16          3.3060    -0.0040    12.4610 c          1 VGK       0.878200
     17 O17          2.9410     0.8020    13.2940 o          1 VGK      -0.832800
     18 O18          4.2670    -0.8980    12.7650 o          1 VGK      -0.832800
     19 C19          3.1160    -0.9300    10.1590 ca         1 VGK      -0.103500
     20 C20          2.5450    -0.9310     8.9130 ca         1 VGK      -0.151500
     21 C21          1.7420    -0.0060     6.1070 ca         1 VGK      -0.038000
     22 C22          3.3160     0.0010     3.6860 ca         1 VGK      -0.256000
     23 C23          4.0670     0.0010     2.5230 ca         1 VGK       0.160100
     24 O24          5.4260     0.0010     2.5920 os         1 VGK      -0.318400
     25 C25          6.0080     0.0010     3.8970 c3         1 VGK       0.126200
     26 C26          3.4350    -0.0060     1.2840 ca         1 VGK       0.029100
     27 O27          4.1750    -0.0110     0.1430 os         1 VGK      -0.324900
     28 C28          4.5330     1.2600    -0.4040 c3         1 VGK       0.133700
     29 H011        -0.3610     0.8830     0.5130 h1         1 VGK       0.042033
     30 H012        -0.3610     0.0020    -1.0210 h1         1 VGK       0.042033
     31 H013        -0.3610    -0.8860     0.5090 h1         1 VGK       0.042033
     32 H04          0.2090     0.0190     2.3150 ha         1 VGK       0.143500
     33 H22          3.8090     0.0010     4.6500 ha         1 VGK       0.143500
     34 H07         -0.7670    -0.0010     3.8300 h4         1 VGK       0.011100
     35 H21          2.8220    -0.0060     6.1860 ha         1 VGK       0.145000
     36 H101        -0.8740    -0.2140     9.1210 hn         1 VGK       0.445800
     37 H102        -2.2470     0.1680     8.1330 hn         1 VGK       0.445800
     38 H13          0.3610     1.6420     9.3080 ha         1 VGK       0.113000
     39 H20          2.8700    -1.6500     8.1700 ha         1 VGK       0.113000
     40 H14          1.3740     1.6440    11.5450 ha         1 VGK       0.153500
     41 H19          3.8870    -1.6500    10.4020 ha         1 VGK       0.153500
     42 H251         5.6830     0.8810     4.4380 h1         1 VGK       0.042033
     43 H252         7.0880     0.0090     3.8100 h1         1 VGK       0.042033
     44 H253         5.6960    -0.8880     4.4320 h1         1 VGK       0.042033
     45 H281         5.5350     1.5220    -0.0840 h1         1 VGK       0.030033
     46 H282         3.8350     2.0130    -0.0580 h1         1 VGK       0.030033
     47 H283         4.5020     1.2100    -1.4860 h1         1 VGK       0.030033
@<TRIPOS>BOND
     1     1     2 1
     2     2     3 1
     3     3     4 ar
     4     3    26 ar
     5     4     5 ar
     6     5     6 1
     7     5    22 ar
     8     6     7 ar
     9     6    21 ar
    10     7     8 ar
    11     8     9 ar
    12     9    10 1
    13     9    11 ar
    14    11    12 1
    15    11    21 ar
    16    12    13 ar
    17    12    20 ar
    18    13    14 ar
    19    14    15 ar
    20    15    16 1
    21    15    19 ar
    22    16    17 1
    23    16    18 1
    24    19    20 ar
    25    22    23 ar
    26    23    24 1
    27    23    26 ar
    28    24    25 1
    29    26    27 1
    30    27    28 1
    31     1    29 1
    32     1    30 1
    33     1    31 1
    34     4    32 1
    35    22    33 1
    36     7    34 1
    37    21    35 1
    38    10    36 1
    39    10    37 1
    40    13    38 1
    41    20    39 1
    42    14    40 1
    43    19    41 1
    44    25    42 1
    45    25    43 1
    46    25    44 1
    47    28    45 1
    48    28    46 1
    49    28    47 1
@<TRIPOS>SUBSTRUCTURE
     1 VGK         1 TEMP              0 ****  ****    0 ROOT
