@<TRIPOS>MOLECULE
VGK
   47    49     1     0     0
SMALL
bcc


@<TRIPOS>ATOM
      1 C01          0.0000     0.0000     0.0000 c3         1 VGK       0.238700
      2 O02          1.4290     0.0000     0.0000 os         1 VGK      -0.298900
      3 C03          2.0450     0.0000     1.2120 ca         1 VGK       0.168600
      4 C04          1.2910    -0.0000     2.3730 ca         1 VGK      -0.257500
      5 C05          1.9230     0.0000     3.6140 cp         1 VGK       0.093000
      6 C06          1.1160    -0.0000     4.8590 cp         1 VGK      -0.248300
      7 C07         -0.2760    -0.0010     4.7960 ca         1 VGK       0.448200
      8 N08         -1.0050    -0.0010     5.8950 nb         1 VGK      -0.673000
      9 C09         -0.4550    -0.0010     7.0990 ca         1 VGK       0.519200
     10 N10         -1.2650    -0.0020     8.2240 nv         1 VGK      -0.536500
     11 C11          0.9410    -0.0010     7.2480 cp         1 VGK      -0.183300
     12 C12          1.5530    -0.0010     8.5970 cp         1 VGK      -0.080000
     13 C13          1.1340     0.9240     9.5530 ca         1 VGK      -0.135500
     14 C14          1.7000     0.9250    10.8030 ca         1 VGK      -0.074000
     15 C15          2.6970    -0.0030    11.1170 ca         1 VGK      -0.091600
     16 C16          3.3060    -0.0040    12.4610 c          1 VGK       0.969200
     17 O17          2.9410     0.8020    13.2940 o          1 VGK      -0.880800
     18 O18          4.2670    -0.8980    12.7650 o          1 VGK      -0.880800
     19 C19          3.1160    -0.9300    10.1590 ca         1 VGK      -0.074000
     20 C20          2.5450    -0.9310     8.9130 ca         1 VGK      -0.135500
     21 C21          1.7420    -0.0060     6.1070 ca         1 VGK      -0.012000
     22 C22          3.3160     0.0010     3.6860 ca         1 VGK      -0.257500
     23 C23          4.0670     0.0010     2.5230 ca         1 VGK       0.168600
     24 O24          5.4260     0.0010     2.5920 os         1 VGK      -0.298900
     25 C25          6.0080     0.0010     3.8970 c3         1 VGK       0.238700
     26 C26          3.4350    -0.0060     1.2840 ca         1 VGK       0.020100
     27 O27          4.1750    -0.0110     0.1430 os         1 VGK      -0.309900
     28 C28          4.5330     1.2600    -0.4040 c3         1 VGK       0.247700
     29 H011        -0.3610     0.8830     0.5130 h1         1 VGK      -0.001967
     30 H012        -0.3610     0.0020    -1.0210 h1         1 VGK      -0.001967
     31 H013        -0.3610    -0.8860     0.5090 h1         1 VGK      -0.001967
     32 H04          0.2090     0.0190     2.3150 ha         1 VGK       0.136500
     33 H22          3.8090     0.0010     4.6500 ha         1 VGK       0.136500
     34 H07         -0.7670    -0.0010     3.8300 h4         1 VGK      -0.027900
     35 H21          2.8220    -0.0060     6.1860 ha         1 VGK       0.119000
     36 H101        -0.8740    -0.2140     9.1210 hn         1 VGK       0.281300
     37 H102        -2.2470     0.1680     8.1330 hn         1 VGK       0.281300
     38 H13          0.3610     1.6420     9.3080 ha         1 VGK       0.092500
     39 H20          2.8700    -1.6500     8.1700 ha         1 VGK       0.092500
     40 H14          1.3740     1.6440    11.5450 ha         1 VGK       0.127500
     41 H19          3.8870    -1.6500    10.4020 ha         1 VGK       0.127500
     42 H251         5.6830     0.8810     4.4380 h1         1 VGK      -0.001967
     43 H252         7.0880     0.0090     3.8100 h1         1 VGK      -0.001967
     44 H253         5.6960    -0.8880     4.4320 h1         1 VGK      -0.001967
     45 H281         5.5350     1.5220    -0.0840 h1         1 VGK      -0.012967
     46 H282         3.8350     2.0130    -0.0580 h1         1 VGK      -0.012967
     47 H283         4.5020     1.2100    -1.4860 h1         1 VGK      -0.012967
@<TRIPOS>BOND
     1     1     2 1   
     2     1    29 1   
     3     1    30 1   
     4     1    31 1   
     5     2     3 1   
     6     3     4 ar  
     7     3    26 ar  
     8     4     5 ar  
     9     4    32 1   
    10     5     6 1   
    11     5    22 ar  
    12     6     7 ar  
    13     6    21 ar  
    14     7     8 ar  
    15     7    34 1   
    16     8     9 ar  
    17     9    10 1   
    18     9    11 ar  
    19    10    36 1   
    20    10    37 1   
    21    11    12 1   
    22    11    21 ar  
    23    12    13 ar  
    24    12    20 ar  
    25    13    14 ar  
    26    13    38 1   
    27    14    15 ar  
    28    14    40 1   
    29    15    16 1   
    30    15    19 ar  
    31    16    17 1   
    32    16    18 1   
    33    19    20 ar  
    34    19    41 1   
    35    20    39 1   
    36    21    35 1   
    37    22    23 ar  
    38    22    33 1   
    39    23    24 1   
    40    23    26 ar  
    41    24    25 1   
    42    25    42 1   
    43    25    43 1   
    44    25    44 1   
    45    26    27 1   
    46    27    28 1   
    47    28    45 1   
    48    28    46 1   
    49    28    47 1   
@<TRIPOS>SUBSTRUCTURE
     1 VGK         1 TEMP              0 ****  ****    0 ROOT
