@<TRIPOS>MOLECULE
molecule
   12    12     1     0     0
SMALL
bcc


@<TRIPOS>ATOM
      1 C1           0.0000     0.0000     0.0000 ca         1 VGL       0.295500
      2 C3           0.0030     0.0040     2.2930 ca         1 VGL       0.266900
      3 C4           1.3910    -0.0010     2.2890 ca         1 VGL       0.246900
      4 C2          -0.7430     0.0010    -1.2800 c          1 VGL       0.780100
      5 C6           1.3950     0.0000     0.0000 ca         1 VGL       0.299900
      6 O1          -0.1380     0.0010    -2.3330 o          1 VGL      -0.815300
      7 O2          -2.0900    -0.0000    -1.2780 o          1 VGL      -0.815300
      8 N2          -0.6610     0.0040     1.1540 nb         1 VGL      -0.615000
      9 N5           2.0530     0.0000     1.1450 nb         1 VGL      -0.691000
     10 H6           1.9370     0.0010    -0.9380 h4         1 VGL       0.046100
     11 H3          -0.5350     0.0050     3.2330 h4         1 VGL       0.003100
     12 H4           1.9340    -0.0010     3.2270 h4         1 VGL      -0.001900
@<TRIPOS>BOND
     1     1     4 1
     2     1     5 ar
     3     1     8 ar
     4     2     3 ar
     5     2     8 ar
     6     3     9 ar
     7     4     6 1
     8     4     7 1
     9     5     9 ar
    10     5    10 1
    11     2    11 1
    12     3    12 1
@<TRIPOS>SUBSTRUCTURE
     1 VGL         1 TEMP              0 ****  ****    0 ROOT
