@<TRIPOS>MOLECULE
VGL
   12    12     1     0     0
SMALL
bcc


@<TRIPOS>ATOM
      1 C1         -0.0490    0.0880    0.0180 ca        1 VGL      0.288500
      2 C3          0.1030    0.4470    2.2810 ca        1 VGL      0.265900
      3 C4          1.3800   -0.1520    2.3120 ca        1 VGL      0.221900
      4 C2         -0.7630    0.1660   -1.3490 c         1 VGL      0.828100
      5 C6          1.2500   -0.5190    0.0590 ca        1 VGL      0.275900
      6 O1         -0.5270    1.1830   -2.0490 o         1 VGL     -0.804300
      7 O2         -1.4820   -0.8150   -1.6640 o         1 VGL     -0.804300
      8 N2         -0.6170    0.5710    1.1410 nb        1 VGL     -0.635000
      9 N5          1.9620   -0.6410    1.1900 nb        1 VGL     -0.664000
     10 H6          1.6990   -0.9080   -0.8690 h4        1 VGL      0.028100
     11 H3         -0.3630    0.8420    3.1970 h4        1 VGL      0.001100
     12 H4          1.9530   -0.2460    3.2450 h4        1 VGL     -0.000900
@<TRIPOS>BOND
     1    1    4 1   
     2    1    5 ar  
     3    1    8 ar  
     4    2    3 ar  
     5    2    8 ar  
     6    2   11 1   
     7    3    9 ar  
     8    3   12 1   
     9    4    6 1   
    10    4    7 1   
    11    5    9 ar  
    12    5   10 1   
@<TRIPOS>SUBSTRUCTURE
     1 VGL         1 TEMP              0 ****  ****    0 ROOT
