@<TRIPOS>MOLECULE
molecule
   43    45     1     0     0
SMALL
bcc


@<TRIPOS>ATOM
      1 C01          0.0000     0.0000     0.0000 c3         1 VGM       0.123700
      2 O02          1.4290     0.0000     0.0000 os         1 VGM      -0.303900
      3 C03          2.0460     0.0000     1.2120 ca         1 VGM       0.138100
      4 C04          1.2920    -0.0010     2.3720 ca         1 VGM      -0.198000
      5 C05          1.9280     0.0000     3.6120 cp         1 VGM      -0.024000
      6 C06          1.1230    -0.0010     4.8590 cp         1 VGM      -0.153300
      7 C07         -0.2690    -0.0020     4.8000 ca         1 VGM       0.466200
      8 N08         -0.9950    -0.0030     5.9000 nb         1 VGM      -0.695000
      9 C09         -0.4420    -0.0020     7.1030 ca         1 VGM       0.703200
     10 N10         -1.2490    -0.0040     8.2300 nv         1 VGM      -1.082500
     11 C11          0.9540    -0.0020     7.2490 cp         1 VGM      -0.227300
     12 C12          1.5690    -0.0010     8.5960 cp         1 VGM       0.092000
     13 C13          1.1510     0.9240     9.5540 ca         1 VGM      -0.111000
     14 C14          1.7220     0.9250    10.8060 ca         1 VGM      -0.072000
     15 C15          2.7200    -0.0020    11.1190 ca         1 VGM      -0.231600
     16 C16          3.3330    -0.0020    12.4620 c          1 VGM       0.506700
     17 N17          4.2960    -0.8950    12.7640 nz         1 VGM      -0.678400
     18 O18          2.9690     0.8040    13.2960 o          1 VGM      -0.425100
     19 C19          3.1380    -0.9280    10.1590 ca         1 VGM      -0.072000
     20 C20          2.5620    -0.9310     8.9100 ca         1 VGM      -0.111000
     21 C21          1.7530    -0.0070     6.1060 ca         1 VGM      -0.059000
     22 C22          3.3190     0.0000     3.6800 ca         1 VGM      -0.144000
     23 C23          4.0670     0.0010     2.5210 ca         1 VGM      -0.130000
     24 C24          3.4360    -0.0050     1.2860 ca         1 VGM       0.098100
     25 O25          4.1770    -0.0100     0.1450 oh         1 VGM      -0.496100
     26 H011        -0.3610    -0.8930     0.4960 h1         1 VGM       0.045700
     27 H012        -0.3610     0.8760     0.5250 h1         1 VGM       0.045700
     28 H013        -0.3610     0.0170    -1.0210 h1         1 VGM       0.045700
     29 H04          0.2130    -0.0800     2.3170 ha         1 VGM       0.144000
     30 H22          3.8140     0.0030     4.6440 ha         1 VGM       0.125000
     31 H07         -0.7620    -0.0030     3.8350 h4         1 VGM       0.039100
     32 H21          2.8330    -0.0070     6.1840 ha         1 VGM       0.146000
     33 H101        -1.7000     0.8400     8.5230 hn         1 VGM       0.442300
     34 H102        -1.4290    -0.8610     8.7150 hn         1 VGM       0.442300
     35 H13          0.4010     1.6630     9.3010 ha         1 VGM       0.168000
     36 H20          2.9070    -1.7980     8.3600 ha         1 VGM       0.168000
     37 H14          1.3690     1.6170    11.5610 ha         1 VGM       0.137500
     38 H19          3.9150    -1.6430    10.3990 ha         1 VGM       0.137500
     39 H171         3.9350    -1.8230    12.6620 hn         1 VGM       0.476467
     40 H172         4.5970    -0.7560    13.7080 hn         1 VGM       0.476467
     41 H23          5.1490    -0.0010     2.5750 ha         1 VGM       0.148000
     42 H25          4.5880    -0.8520     0.0410 ho         1 VGM       0.422000
     43 H173         5.0720    -0.7720    12.1430 hn         1 VGM       0.476467
@<TRIPOS>BOND
     1     1     2 1
     2     2     3 1
     3     3     4 ar
     4     3    24 ar
     5     4     5 ar
     6     5     6 1
     7     5    22 ar
     8     6     7 ar
     9     6    21 ar
    10     7     8 ar
    11     8     9 ar
    12     9    10 1
    13     9    11 ar
    14    11    12 1
    15    11    21 ar
    16    12    13 ar
    17    12    20 ar
    18    13    14 ar
    19    14    15 ar
    20    15    16 1
    21    15    19 ar
    22    16    17 1
    23    16    18 2
    24    19    20 ar
    25    22    23 ar
    26    23    24 ar
    27    24    25 1
    28     1    26 1
    29     1    27 1
    30     1    28 1
    31     4    29 1
    32    22    30 1
    33     7    31 1
    34    21    32 1
    35    10    33 1
    36    10    34 1
    37    13    35 1
    38    20    36 1
    39    14    37 1
    40    19    38 1
    41    17    39 1
    42    17    40 1
    43    23    41 1
    44    25    42 1
    45    43    17 1
@<TRIPOS>SUBSTRUCTURE
     1 VGM         1 TEMP              0 ****  ****    0 ROOT
