@<TRIPOS>MOLECULE
VGN
   41    43     1     0     0
SMALL
bcc


@<TRIPOS>ATOM
      1 CB          0.0160    0.4430   -0.1320 ca        1 VGN     -0.197000
      2 CG          1.3940    0.3610   -0.2740 ca        1 VGN     -0.104000
      3 C16         6.4670   -0.1610    0.3850 cp        1 VGN     -0.076000
      4 O1         -1.5080   -0.5900    3.8560 o         1 VGN     -0.829800
      5 C22         9.9110    0.0060   -1.1260 ca        1 VGN     -0.134000
      6 C9          4.2390   -0.5120   -0.5080 ca        1 VGN     -0.135000
      7 C19         8.5270    0.0780   -0.9870 ca        1 VGN     -0.125500
      8 C17         7.9180   -0.2360    0.2370 cp        1 VGN     -0.011000
      9 C8          4.5120    0.4050    1.7080 ca        1 VGN     -0.135000
     10 C12         5.8940    0.3310    1.5670 ca        1 VGN     -0.117500
     11 C18         8.7250   -0.6230    1.3170 ca        1 VGN     -0.125500
     12 C6         -0.5980    0.2230    1.1240 ca        1 VGN      0.104600
     13 C3          2.2140    0.0640    0.8210 cp        1 VGN     -0.121000
     14 C4          0.2280   -0.0740    2.2450 ca        1 VGN     -0.176600
     15 O2          0.5530   -0.2340    4.6010 o         1 VGN     -0.829800
     16 C13         5.6210   -0.5800   -0.6510 ca        1 VGN     -0.117500
     17 C5         -0.2840   -0.3130    3.6610 c         1 VGN      0.914200
     18 C2          1.6080   -0.1460    2.0670 ca        1 VGN     -0.064000
     19 C21        10.7060   -0.3800   -0.0470 ca        1 VGN     -0.143000
     20 C23         3.6620   -0.0150    0.6720 cp        1 VGN      0.021000
     21 C20        10.1090   -0.6950    1.1740 ca        1 VGN     -0.134000
     22 N10        -1.9870    0.2840    1.2950 n         1 VGN     -0.458100
     23 C1         -4.3770    0.6120    0.8820 c3        1 VGN     -0.174100
     24 C14        -2.9460    0.6470    0.3780 c         1 VGN      0.657100
     25 O15        -2.7160    0.9930   -0.8020 o         1 VGN     -0.647100
     26 HB         -0.5960    0.6860   -1.0150 ha        1 VGN      0.157000
     27 HG          1.8420    0.5440   -1.2620 ha        1 VGN      0.113000
     28 H12         6.5430    0.6700    2.3880 ha        1 VGN      0.123000
     29 H13         6.0540   -0.9800   -1.5800 ha        1 VGN      0.123000
     30 H21        11.7980   -0.4370   -0.1580 ha        1 VGN      0.121000
     31 H9          3.5880   -0.8600   -1.3240 ha        1 VGN      0.142000
     32 H18         8.2570   -0.8790    2.2800 ha        1 VGN      0.136000
     33 H8          4.0760    0.7980    2.6400 ha        1 VGN      0.142000
     34 H20        10.7310   -1.0020    2.0270 ha        1 VGN      0.123500
     35 H10        -2.3040    0.0210    2.2230 hn        1 VGN      0.380500
     36 H2          2.2220   -0.3770    2.9570 ha        1 VGN      0.160000
     37 H11C       -5.0560    0.9190    0.0520 hc        1 VGN      0.058367
     38 H12C       -4.6470   -0.4180    1.2170 hc        1 VGN      0.058367
     39 H13C       -4.5040    1.3150    1.7400 hc        1 VGN      0.058367
     40 H22        10.3780    0.2570   -2.0890 ha        1 VGN      0.123500
     41 H19         7.9040    0.3900   -1.8390 ha        1 VGN      0.136000
@<TRIPOS>BOND
     1    1    2 ar  
     2    1   12 ar  
     3    1   26 1   
     4    2   13 ar  
     5    2   27 1   
     6    3    8 1   
     7    3   10 ar  
     8    3   16 ar  
     9    4   17 1   
    10    5    7 ar  
    11    5   19 ar  
    12    5   40 1   
    13    6   16 ar  
    14    6   20 ar  
    15    6   31 1   
    16    7    8 ar  
    17    7   41 1   
    18    8   11 ar  
    19    9   10 ar  
    20    9   20 ar  
    21    9   33 1   
    22   10   28 1   
    23   11   21 ar  
    24   11   32 1   
    25   12   14 ar  
    26   12   22 1   
    27   13   18 ar  
    28   13   20 1   
    29   14   17 1   
    30   14   18 ar  
    31   15   17 1   
    32   16   29 1   
    33   18   36 1   
    34   19   21 ar  
    35   19   30 1   
    36   21   34 1   
    37   22   24 1   
    38   22   35 1   
    39   23   24 1   
    40   23   37 1   
    41   23   38 1   
    42   23   39 1   
    43   24   25 2   
@<TRIPOS>SUBSTRUCTURE
     1 VGN         1 TEMP              0 ****  ****    0 ROOT
