@<TRIPOS>MOLECULE
molecule
   41    43     1     0     0
SMALL
bcc


@<TRIPOS>ATOM
      1 CB           0.0000     0.0000     0.0000 ca         1 VGN      -0.161000
      2 CG           1.3770     0.0000     0.0000 ca         1 VGN      -0.117000
      3 C16          6.3370     0.0000     1.1800 cp         1 VGN      -0.022000
      4 O1          -1.9480    -0.0900     3.6980 o          1 VGN      -0.839800
      5 C22          9.7430    -0.1820    -1.7080 ca         1 VGN      -0.134000
      6 C9           4.2550    -0.0000    -0.0150 ca         1 VGN      -0.125500
      7 C19          8.4610    -0.0850    -1.2040 ca         1 VGN      -0.132500
      8 C17          8.2430    -0.2190     0.1670 cp         1 VGN      -0.019000
      9 C8           4.2690     0.0050     2.4000 ca         1 VGN      -0.125500
     10 C12          5.6460     0.0060     2.3920 ca         1 VGN      -0.134500
     11 C18          9.3210    -0.4490     1.0200 ca         1 VGN      -0.132500
     12 C6          -0.6990    -0.0010     1.2010 ca         1 VGN       0.085600
     13 C3           2.0820     0.0000     1.2060 cp         1 VGN      -0.106000
     14 C4           0.0000    -0.0000     2.4180 ca         1 VGN      -0.139600
     15 O2          -0.0610     0.0310     4.8610 o          1 VGN      -0.839800
     16 C13          5.6330    -0.0000    -0.0230 ca         1 VGN      -0.134500
     17 C5          -0.7360    -0.0010     3.6950 c          1 VGN       0.893200
     18 C2           1.3950    -0.0010     2.4140 ca         1 VGN      -0.060000
     19 C21         10.8080    -0.4120    -0.8570 ca         1 VGN      -0.160000
     20 C23          3.5650     0.0000     1.1970 cp         1 VGN      -0.004000
     21 C20         10.5980    -0.5450     0.5040 ca         1 VGN      -0.134000
     22 N10         -2.0910    -0.0010     1.1960 ns         1 VGN      -0.444100
     23 C1          -4.2660     0.7610     0.2960 c3         1 VGN      -0.167100
     24 C14         -2.7620     0.6780     0.2450 c          1 VGN       0.652100
     25 O15         -2.1560     1.2210    -0.6550 o          1 VGN      -0.640100
     26 HB          -0.5400    -0.0000    -0.9390 ha         1 VGN       0.149000
     27 HG           1.9170     0.0000    -0.9400 ha         1 VGN       0.112000
     28 H12          6.1800    -0.1600     3.3200 ha         1 VGN       0.129000
     29 H13          6.1650    -0.0950    -0.9620 ha         1 VGN       0.129000
     30 H21         11.8030    -0.4810    -1.2800 ha         1 VGN       0.119000
     31 H9           3.7080    -0.0020    -0.9490 ha         1 VGN       0.148000
     32 H18          9.4700    -0.5430     2.0890 ha         1 VGN       0.138000
     33 H8           3.7330     0.0080     3.3420 ha         1 VGN       0.148000
     34 H20         11.4790    -0.7240     1.1080 ha         1 VGN       0.123500
     35 H10         -2.5930    -0.5440     1.8700 hn         1 VGN       0.366500
     36 H2           1.9400    -0.0010     3.3500 ha         1 VGN       0.157000
     37 H11C        -4.6450     1.0540    -0.6750 hc         1 VGN       0.053033
     38 H12C        -4.5620     1.4950     1.0360 hc         1 VGN       0.053033
     39 H13C        -4.6720    -0.2070     0.5660 hc         1 VGN       0.053033
     40 H22          9.9290    -0.0980    -2.7720 ha         1 VGN       0.123500
     41 H19          7.6370     0.1620    -1.8620 ha         1 VGN       0.138000
@<TRIPOS>BOND
     1     1     2 ar
     2     1    12 ar
     3     2    13 ar
     4     3     8 1
     5     3    10 ar
     6     3    16 ar
     7     4    17 1
     8     5     7 ar
     9     5    19 ar
    10     6    16 ar
    11     6    20 ar
    12     7     8 ar
    13     8    11 ar
    14     9    10 ar
    15     9    20 ar
    16    11    21 ar
    17    12    14 ar
    18    12    22 1
    19    13    18 ar
    20    13    20 1
    21    14    17 1
    22    14    18 ar
    23    15    17 1
    24    19    21 ar
    25    22    24 1
    26    23    24 1
    27    24    25 2
    28     1    26 1
    29     2    27 1
    30    10    28 1
    31    16    29 1
    32     5    40 1
    33     7    41 1
    34    19    30 1
    35     6    31 1
    36    11    32 1
    37     9    33 1
    38    21    34 1
    39    22    35 1
    40    18    36 1
    41    23    37 1
    42    23    38 1
    43    23    39 1
@<TRIPOS>SUBSTRUCTURE
     1 VGN         1 TEMP              0 ****  ****    0 ROOT
