@<TRIPOS>MOLECULE
molecule
   64    68     1     0     0
SMALL
bcc


@<TRIPOS>ATOM
      1 C            0.0000     0.0000     0.0000 c3         1 VGP       0.120700
      2 O           12.2090     0.7550    -0.1840 oh         1 VGP      -0.587800
      3 C01          8.0820    -0.7240     3.1110 ca         1 VGP      -0.245000
      4 O01          6.1140     1.1100    -1.1370 os         1 VGP      -0.306900
      5 C02          8.6080     0.0000     2.0450 ca         1 VGP      -0.033000
      6 C03          7.8230     0.3720     0.9960 ca         1 VGP      -0.099300
      7 C04          6.4610     0.0220     0.9790 ca         1 VGP       0.029000
      8 O04          1.4290     0.0000     0.0000 os         1 VGP      -0.321900
      9 C05          5.9180    -0.7160     2.0600 ca         1 VGP      -0.057000
     10 O05          6.0500    -0.4190    -2.8950 oh         1 VGP      -0.620800
     11 C06          6.7550    -1.0910     3.1280 ca         1 VGP       0.165100
     12 O06          9.5990     1.8610     0.2790 os         1 VGP      -0.397600
     13 C07          5.6280     0.3960    -0.0900 ca         1 VGP       0.093100
     14 O07          9.4750     1.6780    -3.1260 oh         1 VGP      -0.606800
     15 C08          4.2850     0.0290    -0.0690 ca         1 VGP      -0.035000
     16 O08          9.5260    -0.9690    -0.6760 oh         1 VGP      -0.573800
     17 C09          3.7590    -0.7000     1.0040 ca         1 VGP      -0.215000
     18 C10          4.5530    -1.0700     2.0500 ca         1 VGP       0.158100
     19 C11          5.5830     0.8520    -2.4370 c3         1 VGP       0.405200
     20 C12          4.0770     0.8430    -2.3890 ca         1 VGP      -0.118300
     21 C13          3.4380     0.4310    -1.2150 ca         1 VGP      -0.022000
     22 C14          3.3310     1.2330    -3.4760 ca         1 VGP      -0.137000
     23 C15          1.9350     1.2120    -3.4070 ca         1 VGP      -0.023800
     24 C16          1.2950     0.7960    -2.2360 ca         1 VGP      -0.203000
     25 C17          2.0450     0.4060    -1.1410 ca         1 VGP       0.152100
     26 C19         -0.1910     1.6110    -4.5110 c2         1 VGP      -0.207000
     27 C20          8.9390     0.2010    -1.2500 c3         1 VGP       0.117100
     28 C21          8.4150     1.1560    -0.1480 c3         1 VGP       0.197400
     29 C22         10.0120     1.0720    -1.9490 c3         1 VGP       0.079100
     30 C23         10.3670     2.1460    -0.9030 c3         1 VGP       0.131100
     31 C24         11.8610     2.0840    -0.5800 c3         1 VGP       0.143100
     32 C25         12.1770     3.0540     0.5600 c3         1 VGP      -0.118100
     33 C26          2.6380    -2.1040     3.0070 c3         1 VGP       0.125700
     34 H           -0.3610     1.0020    -0.1980 h1         1 VGP       0.042700
     35 HA          -0.3610    -0.6720    -0.7690 h1         1 VGP       0.042700
     36 HB          -0.3610    -0.3300     0.9670 h1         1 VGP       0.042700
     37 HO          13.1430     0.6450    -0.2400 ho         1 VGP       0.394000
     38 H01          8.7260    -1.0080     3.9340 ha         1 VGP       0.129000
     39 H02          9.6550     0.2770     2.0530 ha         1 VGP       0.159000
     40 HO02         6.8800    -1.8030     4.8790 ho         1 VGP       0.417000
     41 HO07        10.1060     1.6230    -3.8240 ho         1 VGP       0.400000
     42 HO08         9.5530    -1.6560    -1.3200 ho         1 VGP       0.397000
     43 H09          2.7120    -0.9800     1.0000 ha         1 VGP       0.164000
     44 H14          3.8240     1.5570    -4.3850 ha         1 VGP       0.131000
     45 H16          0.2130     0.7810    -2.1860 ha         1 VGP       0.142000
     46 H18          1.6280     1.9540    -5.4820 ha         1 VGP       0.131000
     47 H19         -0.7790     1.9180    -5.3670 ha         1 VGP       0.116000
     48 H19A        -0.6860     1.2880    -3.6030 ha         1 VGP       0.116000
     49 H20          8.1460    -0.0570    -1.9420 h1         1 VGP       0.079700
     50 H21          7.6900     1.8480    -0.5590 h1         1 VGP       0.095700
     51 H22         10.8840     0.4750    -2.1870 h1         1 VGP       0.062700
     52 H23         10.1060     3.1270    -1.2820 h1         1 VGP       0.064700
     53 H24         12.4320     2.3600    -1.4580 h1         1 VGP       0.025700
     54 H25         11.6190     3.9720     0.4190 hc         1 VGP       0.045033
     55 H25A        13.2380     3.2740     0.5640 hc         1 VGP       0.045033
     56 H25B        11.8990     2.6040     1.5060 hc         1 VGP       0.045033
     57 H26          2.0540    -1.1910     3.0000 h1         1 VGP       0.040033
     58 H26A         2.4530    -2.6590     2.0960 h1         1 VGP       0.040033
     59 H26B         2.3540    -2.7070     3.8610 h1         1 VGP       0.040033
     60 H27          5.9640    -0.4660    -3.8330 ho         1 VGP       0.418000
     61 H28          5.9130     1.6270    -3.1180 h2         1 VGP       0.081700
     62 C18          1.1340     1.6310    -4.5740 ce         1 VGP      -0.118200
     63 O02          6.2540    -1.7990     4.1730 oh         1 VGP      -0.475100
     64 O03          4.0280    -1.7790     3.0830 os         1 VGP      -0.302900
@<TRIPOS>BOND
     1     1     8 1
     2     1    34 1
     3     1    35 1
     4     1    36 1
     5     2    37 1
     6     3     5 ar
     7     3    38 1
     8     5    39 1
     9    63    11 1
    10    63    40 1
    11     6     5 ar
    12     6    28 1
    13    64    18 1
    14     7     6 ar
    15     8    25 1
    16     9     7 ar
    17     9    11 ar
    18    11     3 ar
    19    12    30 1
    20    13     4 1
    21    13     7 ar
    22    14    41 1
    23    15    13 ar
    24    16    27 1
    25    16    42 1
    26    17    15 ar
    27    17    18 ar
    28    17    43 1
    29    18     9 ar
    30    19     4 1
    31    19    10 1
    32    20    19 1
    33    21    15 1
    34    21    20 ar
    35    22    20 ar
    36    22    44 1
    37    23    22 ar
    38    24    23 ar
    39    24    25 ar
    40    24    45 1
    41    25    21 ar
    42    62    23 1
    43    62    26 2
    44    62    46 1
    45    26    47 1
    46    26    48 1
    47    27    29 1
    48    27    49 1
    49    28    12 1
    50    28    27 1
    51    28    50 1
    52    29    14 1
    53    29    30 1
    54    29    51 1
    55    30    31 1
    56    30    52 1
    57    31     2 1
    58    31    32 1
    59    31    53 1
    60    32    54 1
    61    32    55 1
    62    32    56 1
    63    33    64 1
    64    33    57 1
    65    33    58 1
    66    33    59 1
    67    10    60 1
    68    19    61 1
@<TRIPOS>SUBSTRUCTURE
     1 VGP         1 TEMP              0 ****  ****    0 ROOT
