@<TRIPOS>MOLECULE
VGP
   64    63     1     0     0
SMALL
bcc


@<TRIPOS>ATOM
      1 C           3.3750    3.2830   -0.6060 c3        1 VGP     -0.084000
      2 O          12.4640    2.1740    3.3380 oh        1 VGP     -0.174000
      3 C01        10.0490    0.6520    1.9900 c1        1 VGP      0.172000
      4 O01         6.2300    0.3400   -1.6030 os        1 VGP     -0.224000
      5 C02         9.0390   -0.1610    1.7200 c2        1 VGP     -0.433000
      6 C03         8.1400   -0.0110    0.5880 c2        1 VGP     -0.011000
      7 C04         7.0090   -0.7540    0.4410 ca        1 VGP     -0.015000
      8 O04         3.7160    1.9140   -0.3940 os        1 VGP     -0.211000
      9 C05         6.7060   -1.9160    1.2840 ca        1 VGP     -0.118000
     10 O05         6.0290   -1.3850   -3.0830 oh        1 VGP     -0.248000
     11 C06         7.6570   -2.8440    1.5740 c2        1 VGP      0.004000
     12 O06         9.5200    1.9410    0.3060 os        1 VGP     -0.214000
     13 C07         5.9110   -0.4260   -0.4730 ca        1 VGP     -0.007000
     14 O07         6.1930    3.0010   -1.9760 oh        1 VGP     -0.416000
     15 C08         4.6100   -0.7220   -0.1790 cp        1 VGP      0.008000
     16 O08         9.3240   -0.7820   -1.8080 oh        1 VGP     -0.307000
     17 C09         4.3190   -1.4770    1.0330 ca        1 VGP     -0.129000
     18 C10         5.3290   -2.0670    1.7130 ca        1 VGP     -0.075000
     19 C11         6.2870   -0.1280   -2.8430 c1        1 VGP      0.163000
     20 C12         2.8230   -1.3420   -1.7790 ca        1 VGP     -0.089000
     21 C13         3.4900   -0.3500   -1.0480 cq        1 VGP     -0.110000
     22 C14         1.7570   -1.0220   -2.6140 ca        1 VGP     -0.162000
     23 C15         1.3330    0.3020   -2.7260 ca        1 VGP     -0.082000
     24 C16         1.9680    1.3080   -2.0030 ca        1 VGP     -0.202000
     25 C17         3.0440    0.9860   -1.1630 ca        1 VGP      0.107000
     26 C19        -1.9240    1.1100   -4.5580 c1        1 VGP     -0.220000
     27 C20         9.1950    0.6140   -1.6890 c3        1 VGP      0.049000
     28 C21         8.5260    1.0880   -0.3530 c3        1 VGP     -0.010000
     29 C22        10.5220    1.3330   -1.6650 c2        1 VGP     -0.293000
     30 C23        10.6360    2.0470   -0.5310 c2        1 VGP     -0.011000
     31 C24        12.3860    3.4540    3.2120 c1        1 VGP      0.008000
     32 C25        11.2540    4.0660    2.4810 c3        1 VGP     -0.347000
     33 C26         2.8910   -1.5890    1.4590 c3        1 VGP      0.019000
     34 H           3.5540    3.5710   -1.6710 h1        1 VGP      0.093333
     35 HA          4.0850    3.8270    0.0690 h1        1 VGP      0.093333
     36 HB          2.3170    3.4740   -0.3080 h1        1 VGP      0.093333
     37 HO         11.7360    1.6440    2.9260 ho        1 VGP      0.187000
     38 H01         8.6880   -2.7930    1.1890 h4        1 VGP      0.141000
     39 H02         8.8060   -0.9540    2.4600 ha        1 VGP      0.191000
     40 HO02        8.1080   -4.4860    2.4200 ho        1 VGP      0.225000
     41 HO07        5.6790    2.4760   -1.3520 ho        1 VGP      0.206000
     42 HO08        9.9240   -1.0820   -1.1140 ho        1 VGP      0.202000
     43 H09         5.1400   -2.7090    2.5900 ha        1 VGP      0.162000
     44 H14         1.2510   -1.8130   -3.1860 ha        1 VGP      0.141000
     45 H16         1.6230    2.3470   -2.0990 ha        1 VGP      0.146000
     46 H18         0.4890    0.5580   -3.3910 ha        1 VGP      0.147000
     47 H19        -0.2060    1.3550   -6.0010 ha        1 VGP      0.221000
     48 H19A       -2.7350    0.9950   -3.8840 ha        1 VGP      0.221000
     49 H20         8.5510    0.9130   -2.5640 h1        1 VGP      0.159000
     50 H21         7.6570    1.7720   -0.5740 h1        1 VGP      0.171000
     51 H22         6.4260    2.3680   -2.6650 ho        1 VGP      0.206000
     52 H23        11.2350    1.2400   -2.4820 ha        1 VGP      0.174000
     53 H24        11.4040    2.7080   -0.1210 h4        1 VGP      0.192000
     54 H25        10.5360    3.3290    2.0320 hc        1 VGP      0.105333
     55 H25A       11.6660    4.7130    1.6660 hc        1 VGP      0.105333
     56 H25B       10.6950    4.7270    3.1910 hc        1 VGP      0.105333
     57 H26         2.3390   -2.2970    0.7800 h1        1 VGP      0.101500
     58 H26A        3.1760   -1.5490    3.3720 ho        1 VGP      0.201000
     59 H26B        2.4030   -0.5750    1.4090 h1        1 VGP      0.101500
     60 H27         5.7930   -1.9350   -2.3100 ho        1 VGP      0.220000
     61 H28         3.1560   -2.3880   -1.6900 ha        1 VGP      0.137000
     62 C18        -1.0120    1.2390   -5.3210 c1        1 VGP     -0.220000
     63 O02         7.3330   -3.9070    2.3770 oh        1 VGP     -0.244000
     64 O03         2.7330   -2.1400    2.7510 oh        1 VGP     -0.321000
@<TRIPOS>BOND
     1    1    8 1   
     2    1   34 1   
     3    1   35 1   
     4    1   36 1   
     5    2   31 1   
     6    2   37 1   
     7    3    5 1   
     8    4   13 1   
     9    4   19 1   
    10    5    6 1   
    11    5   39 1   
    12    6    7 1   
    13    6   28 1   
    14    7    9 1   
    15    7   13 1   
    16    8   25 1   
    17    9   11 1   
    18    9   18 1   
    19   10   19 1   
    20   10   60 1   
    21   11   38 1   
    22   11   63 1   
    23   12   28 1   
    24   12   30 1   
    25   13   15 1   
    26   14   41 1   
    27   14   51 1   
    28   15   17 1   
    29   15   21 1   
    30   16   27 1   
    31   16   42 1   
    32   17   18 1   
    33   17   33 1   
    34   18   43 1   
    35   20   21 1   
    36   20   22 1   
    37   20   61 1   
    38   21   25 1   
    39   22   23 1   
    40   22   44 1   
    41   23   24 1   
    42   23   46 1   
    43   24   25 1   
    44   24   45 1   
    45   26   48 1   
    46   26   62 1   
    47   27   28 1   
    48   27   29 1   
    49   27   49 1   
    50   28   50 1   
    51   29   30 1   
    52   29   52 1   
    53   30   53 1   
    54   31   32 1   
    55   32   54 1   
    56   32   55 1   
    57   32   56 1   
    58   33   57 1   
    59   33   59 1   
    60   33   64 1   
    61   40   63 1   
    62   47   62 1   
    63   58   64 1   
@<TRIPOS>SUBSTRUCTURE
     1 VGP         1 TEMP              0 ****  ****    0 ROOT
