@<TRIPOS>MOLECULE
molecule
   13    12     1     0     0
SMALL
bcc


@<TRIPOS>ATOM
      1 C01          0.0000     0.0000     0.0000 c3         1 VGX       0.137400
      2 C02          1.5300     0.0000     0.0000 c3         1 VGX      -0.185400
      3 C03          2.0330     0.0000     1.4210 c          1 VGX       0.475100
      4 C04          3.4980    -0.0000     1.6930 c          1 VGX       0.806600
      5 O05          3.9470    -0.0000     2.9630 o          1 VGX      -0.812300
      6 O06          4.2860    -0.0000     0.7720 o          1 VGX      -0.812300
      7 O07          1.2470     0.0000     2.3390 o          1 VGX      -0.557100
      8 O1          -0.4760     0.0000    -1.3470 oh         1 VGX      -0.626800
      9 H1          -0.3610    -0.8850     0.5110 h1         1 VGX       0.022700
     10 H2          -0.3610     0.8850     0.5110 h1         1 VGX       0.022700
     11 H3           1.8920    -0.8850    -0.5110 hc         1 VGX       0.072700
     12 H4           1.8920     0.8850    -0.5110 hc         1 VGX       0.072700
     13 H6          -1.4190     0.0000    -1.3480 ho         1 VGX       0.383000
@<TRIPOS>BOND
     1     1     2 1
     2     6     4 1
     3     2     3 1
     4     4     3 1
     5     4     5 1
     6     3     7 2
     7     1     8 1
     8     1     9 1
     9     1    10 1
    10     2    11 1
    11     2    12 1
    12     8    13 1
@<TRIPOS>SUBSTRUCTURE
     1 VGX         1 TEMP              0 ****  ****    0 ROOT
