@<TRIPOS>MOLECULE
molecule
   40    43     1     0     0
SMALL
bcc


@<TRIPOS>ATOM
      1 CAJ          0.0000     0.0000     0.0000 ca         1 VH1      -0.101000
      2 CAH          1.3810     0.0000     0.0000 ca         1 VH1      -0.154500
      3 CAQ          2.0750     0.0000     1.2040 ca         1 VH1       0.160600
      4 NAA          3.4720     0.0010     1.2070 nv         1 VH1      -0.993200
      5 CAI          1.3760     0.0000     2.4040 ca         1 VH1      -0.154500
      6 CAK         -0.0050    -0.0000     2.3970 ca         1 VH1      -0.101000
      7 CAR         -0.6930     0.0000     1.1970 ca         1 VH1      -0.120300
      8 CAP         -2.2000     0.0000     1.1950 c3         1 VH1       0.143300
      9 NAZ         -2.6880    -1.3810     1.1930 n          1 VH1      -0.473400
     10 CAU         -2.9060    -1.9930     2.3730 c          1 VH1       0.729100
     11 OAC         -2.6970    -1.3950     3.4110 o          1 VH1      -0.625500
     12 CAX         -3.3980    -3.3780     2.4110 ca         1 VH1      -0.221600
     13 CAY         -3.6330    -4.0490     1.1900 ca         1 VH1       0.037000
     14 CAO         -3.6350    -4.0470     3.6040 ca         1 VH1       0.079000
     15 CAS         -4.0990    -5.3570     3.5890 ca         1 VH1      -0.280500
     16 SBA         -4.3940    -6.1810     5.1180 s6         1 VH1       1.312100
     17 OAF         -4.3080    -7.5740     4.8470 o          1 VH1      -0.699867
     18 OAE         -3.5870    -5.5270     6.0890 o          1 VH1      -0.699867
     19 OAD         -5.8400    -5.9070     5.5060 o          1 VH1      -0.699867
     20 CAN         -4.3320    -6.0200     2.4190 ca         1 VH1       0.023000
     21 CAV         -4.1030    -5.3790     1.1890 ca         1 VH1      -0.088000
     22 CAL         -4.3270    -6.0190    -0.0420 ca         1 VH1      -0.054000
     23 CAG         -4.0900    -5.3550    -1.2120 ca         1 VH1      -0.184000
     24 CAM         -3.6260    -4.0440    -1.2230 ca         1 VH1      -0.036000
     25 CAW         -3.3920    -3.3770    -0.0300 ca         1 VH1      -0.179600
     26 CAT         -2.9070    -1.9900     0.0110 c          1 VH1       0.733100
     27 OAB         -2.6980    -1.3920    -1.0250 o          1 VH1      -0.647500
     28 HAJ         -0.5410     0.0000    -0.9380 ha         1 VH1       0.149500
     29 HAH          1.9230    -0.0000    -0.9380 ha         1 VH1       0.130500
     30 HAA1         3.9730    -0.8660     1.2080 hn         1 VH1       0.422300
     31 HAA2         3.9720     0.8680     1.2080 hn         1 VH1       0.422300
     32 HAI          1.9130    -0.0000     3.3440 ha         1 VH1       0.130500
     33 HAK         -0.5510    -0.0000     3.3330 ha         1 VH1       0.149500
     34 HAP1        -2.5590     0.5110     0.3100 h1         1 VH1       0.074700
     35 HAP2        -2.5620     0.5100     2.0790 h1         1 VH1       0.074700
     36 HAO         -3.4610    -3.5460     4.5490 ha         1 VH1       0.181000
     37 HAN         -4.6940    -7.0410     2.4380 ha         1 VH1       0.162000
     38 HAL         -4.6880    -7.0400    -0.0640 ha         1 VH1       0.134000
     39 HAG         -4.2690    -5.8610    -2.1530 ha         1 VH1       0.124000
     40 HAM         -3.4480    -3.5420    -2.1670 ha         1 VH1       0.143000
@<TRIPOS>BOND
     1     1     2 ar
     2     1     7 ar
     3     2     3 ar
     4     3     4 1
     5     3     5 ar
     6     5     6 ar
     7     6     7 ar
     8     7     8 1
     9     8     9 1
    10     9    10 1
    11     9    26 1
    12    10    11 2
    13    10    12 1
    14    12    13 ar
    15    12    14 ar
    16    13    21 ar
    17    13    25 ar
    18    14    15 ar
    19    15    16 1
    20    15    20 ar
    21    16    17 1
    22    16    18 1
    23    16    19 1
    24    20    21 ar
    25    21    22 ar
    26    22    23 ar
    27    23    24 ar
    28    24    25 ar
    29    25    26 1
    30    26    27 2
    31     1    28 1
    32     2    29 1
    33     4    30 1
    34     4    31 1
    35     5    32 1
    36     6    33 1
    37     8    34 1
    38     8    35 1
    39    14    36 1
    40    20    37 1
    41    22    38 1
    42    23    39 1
    43    24    40 1
@<TRIPOS>SUBSTRUCTURE
     1 VH1         1 TEMP              0 ****  ****    0 ROOT
