@<TRIPOS>MOLECULE
VH2
   43    46     1     0     0
SMALL
bcc


@<TRIPOS>ATOM
      1 CBA          0.0000     0.0000     0.0000 ca         1 VH2       0.047000
      2 CAP          1.4060     0.0000     0.0000 ca         1 VH2      -0.129000
      3 CAG          2.0790     0.0000     1.1820 ca         1 VH2      -0.067000
      4 CAF          1.3960     0.0010     2.3970 ca         1 VH2      -0.108000
      5 CAN          0.0350     0.0000     2.4360 ca         1 VH2      -0.073000
      6 CAZ         -0.6950     0.0010     1.2350 ca         1 VH2      -0.068000
      7 CAO         -2.1000     0.0010     1.2350 ca         1 VH2      -0.025000
      8 CAH         -2.7730     0.0010     0.0520 ca         1 VH2      -0.146000
      9 CAK         -2.0890     0.0000    -1.1620 ca         1 VH2       0.046000
     10 CAW         -0.7290     0.0050    -1.2010 ca         1 VH2      -0.145500
     11 SBB          0.1120     0.0100    -2.7490 sy         1 VH2       1.036200
     12 OAB         -0.8920    -0.0560    -3.7520 o          1 VH2      -0.566300
     13 OAC          1.0750     1.0540    -2.6800 o          1 VH2      -0.566300
     14 NAR          0.9660    -1.4050    -2.8480 nu         1 VH2      -0.451800
     15 CAV          0.2940    -2.6170    -2.8960 cc         1 VH2       0.625300
     16 SAS          1.0440    -4.1530    -2.8760 ss         1 VH2      -0.301300
     17 NAQ         -0.9960    -2.7500    -2.9560 nd         1 VH2      -0.653000
     18 CAX         -1.4680    -3.9850    -2.9950 cd         1 VH2       0.599600
     19 OAA         -2.7990    -4.2620    -3.0600 oh         1 VH2      -0.586300
     20 CAY         -0.5310    -4.9370    -2.9630 cc         1 VH2      -0.162700
     21 CAE         -0.7780    -6.4230    -2.9930 c3         1 VH2       0.155200
     22 CAU         -0.7910    -6.9030    -4.4210 ca         1 VH2      -0.091300
     23 CAL          0.3830    -7.3200    -5.0190 ca         1 VH2      -0.085500
     24 CAI          0.3730    -7.7600    -6.3310 ca         1 VH2      -0.082000
     25 CAT         -0.8120    -7.7820    -7.0430 ca         1 VH2       0.036100
     26 Br          -0.8270    -8.3830    -8.8350 br         1 VH2      -0.134100
     27 CAJ         -1.9870    -7.3630    -6.4430 ca         1 VH2      -0.082000
     28 CAM         -1.9770    -6.9290    -5.1310 ca         1 VH2      -0.085500
     29 HAP          1.9500    -0.0010    -0.9360 ha         1 VH2       0.126000
     30 HAG          3.1620     0.0010     1.1790 ha         1 VH2       0.103000
     31 HAF          1.9560     0.0010     3.3250 ha         1 VH2       0.104000
     32 HAN         -0.4820     0.0010     3.3880 ha         1 VH2       0.106000
     33 HAO         -2.6440     0.0020     2.1720 ha         1 VH2       0.105000
     34 HAH         -3.8570    -0.0030     0.0540 ha         1 VH2       0.109000
     35 HAK         -2.6490     0.0000    -2.0890 ha         1 VH2       0.133000
     36 HAR          1.9630    -1.3830    -2.9270 hn         1 VH2       0.353800
     37 HAA         -3.2390    -3.8690    -2.3240 ho         1 VH2       0.408000
     38 HAE1        -1.7340    -6.6390    -2.5310 hc         1 VH2       0.026700
     39 HAE2         0.0090    -6.9310    -2.4480 hc         1 VH2       0.026700
     40 HAL          1.3110    -7.3020    -4.4610 ha         1 VH2       0.114000
     41 HAM         -2.8970    -6.6020    -4.6620 ha         1 VH2       0.114000
     42 HAI          1.2930    -8.0870    -6.8000 ha         1 VH2       0.116500
     43 HAJ         -2.9160    -7.3820    -7.0000 ha         1 VH2       0.116500
@<TRIPOS>BOND
     1     1     2 ar  
     2     1     6 ar  
     3     1    10 ar  
     4     2     3 ar  
     5     2    29 1   
     6     3     4 ar  
     7     3    30 1   
     8     4     5 ar  
     9     4    31 1   
    10     5     6 ar  
    11     5    32 1   
    12     6     7 ar  
    13     7     8 ar  
    14     7    33 1   
    15     8     9 ar  
    16     8    34 1   
    17     9    10 ar  
    18     9    35 1   
    19    10    11 1   
    20    11    12 2   
    21    11    13 2   
    22    11    14 1   
    23    14    15 1   
    24    14    36 1   
    25    15    16 1   
    26    15    17 2   
    27    16    20 1   
    28    17    18 1   
    29    18    19 1   
    30    18    20 2   
    31    19    37 1   
    32    20    21 1   
    33    21    22 1   
    34    21    38 1   
    35    21    39 1   
    36    22    23 ar  
    37    22    28 ar  
    38    23    24 ar  
    39    23    40 1   
    40    24    25 ar  
    41    24    42 1   
    42    25    26 1   
    43    25    27 ar  
    44    27    28 ar  
    45    27    43 1   
    46    28    41 1   
@<TRIPOS>SUBSTRUCTURE
     1 VH2         1 TEMP              0 ****  ****    0 ROOT
