@<TRIPOS>MOLECULE
molecule
   43    46     1     0     0
SMALL
bcc


@<TRIPOS>ATOM
      1 CBA          0.0000     0.0000     0.0000 ca         1 VH2       0.044000
      2 CAP          1.4060     0.0000     0.0000 ca         1 VH2      -0.146000
      3 CAG          2.0790     0.0000     1.1820 ca         1 VH2      -0.095000
      4 CAF          1.3960     0.0010     2.3970 ca         1 VH2      -0.135000
      5 CAN          0.0350     0.0000     2.4360 ca         1 VH2      -0.102000
      6 CAZ         -0.6950     0.0010     1.2350 ca         1 VH2      -0.060000
      7 CAO         -2.1000     0.0010     1.2350 ca         1 VH2      -0.055000
      8 CAH         -2.7730     0.0010     0.0520 ca         1 VH2      -0.164000
      9 CAK         -2.0890     0.0000    -1.1620 ca         1 VH2       0.017000
     10 CAW         -0.7290     0.0050    -1.2010 ca         1 VH2      -0.299500
     11 SBB          0.1120     0.0100    -2.7490 sy         1 VH2       1.421200
     12 OAB         -0.8920    -0.0560    -3.7520 o          1 VH2      -0.612300
     13 OAC          1.0750     1.0540    -2.6800 o          1 VH2      -0.612300
     14 NAR          0.9660    -1.4050    -2.8480 nu         1 VH2      -0.831800
     15 CAV          0.2940    -2.6170    -2.8960 cc         1 VH2       0.717300
     16 SAS          1.0440    -4.1530    -2.8760 ss         1 VH2      -0.182300
     17 NAQ         -0.9960    -2.7500    -2.9560 nd         1 VH2      -0.770000
     18 CAX         -1.4680    -3.9850    -2.9950 cd         1 VH2       0.628600
     19 OAA         -2.7990    -4.2620    -3.0600 oh         1 VH2      -0.597300
     20 CAY         -0.5310    -4.9370    -2.9630 cc         1 VH2      -0.177700
     21 CAE         -0.7780    -6.4230    -2.9930 c3         1 VH2       0.061200
     22 CAU         -0.7910    -6.9030    -4.4210 ca         1 VH2      -0.074300
     23 CAL          0.3830    -7.3200    -5.0190 ca         1 VH2      -0.116500
     24 CAI          0.3730    -7.7600    -6.3310 ca         1 VH2      -0.102000
     25 CAT         -0.8120    -7.7820    -7.0430 ca         1 VH2      -0.017900
     26 Br          -0.8270    -8.3830    -8.8350 br         1 VH2      -0.098100
     27 CAJ         -1.9870    -7.3630    -6.4430 ca         1 VH2      -0.102000
     28 CAM         -1.9770    -6.9290    -5.1310 ca         1 VH2      -0.116500
     29 HAP          1.9500    -0.0010    -0.9360 ha         1 VH2       0.138000
     30 HAG          3.1620     0.0010     1.1790 ha         1 VH2       0.133000
     31 HAF          1.9560     0.0010     3.3250 ha         1 VH2       0.133000
     32 HAN         -0.4820     0.0010     3.3880 ha         1 VH2       0.135000
     33 HAO         -2.6440     0.0020     2.1720 ha         1 VH2       0.136000
     34 HAH         -3.8570    -0.0030     0.0540 ha         1 VH2       0.137000
     35 HAK         -2.6490     0.0000    -2.0890 ha         1 VH2       0.163000
     36 HAR          1.9630    -1.3830    -2.9270 hn         1 VH2       0.474800
     37 HAA         -3.2390    -3.8690    -2.3240 ho         1 VH2       0.430000
     38 HAE1        -1.7340    -6.6390    -2.5310 hc         1 VH2       0.063700
     39 HAE2         0.0090    -6.9310    -2.4480 hc         1 VH2       0.063700
     40 HAL          1.3110    -7.3020    -4.4610 ha         1 VH2       0.140500
     41 HAM         -2.8970    -6.6020    -4.6620 ha         1 VH2       0.140500
     42 HAI          1.2930    -8.0870    -6.8000 ha         1 VH2       0.144000
     43 HAJ         -2.9160    -7.3820    -7.0000 ha         1 VH2       0.144000
@<TRIPOS>BOND
     1     1     2 ar
     2     1     6 ar
     3     1    10 ar
     4     2     3 ar
     5     3     4 ar
     6     4     5 ar
     7     5     6 ar
     8     6     7 ar
     9     7     8 ar
    10     8     9 ar
    11     9    10 ar
    12    10    11 1
    13    11    12 2
    14    11    13 2
    15    11    14 1
    16    14    15 1
    17    15    16 1
    18    15    17 2
    19    16    20 1
    20    17    18 1
    21    18    19 1
    22    18    20 2
    23    20    21 1
    24    21    22 1
    25    22    23 ar
    26    22    28 ar
    27    23    24 ar
    28    24    25 ar
    29    25    26 1
    30    25    27 ar
    31    27    28 ar
    32     2    29 1
    33     3    30 1
    34     4    31 1
    35     5    32 1
    36     7    33 1
    37     8    34 1
    38     9    35 1
    39    14    36 1
    40    19    37 1
    41    21    38 1
    42    21    39 1
    43    23    40 1
    44    28    41 1
    45    24    42 1
    46    27    43 1
@<TRIPOS>SUBSTRUCTURE
     1 VH2         1 TEMP              0 ****  ****    0 ROOT
