@<TRIPOS>MOLECULE
VHA
   48    51     1     0     0
SMALL
bcc


@<TRIPOS>ATOM
      1 C1         -0.0210   -0.0730    0.1950 ca        1 VHA     -0.162000
      2 C2          1.3590   -0.2820    0.0700 cp        1 VHA     -0.133500
      3 C3          2.0830   -0.8810    1.1130 ca        1 VHA     -0.051300
      4 C4          3.5410   -1.1240    1.0140 c3        1 VHA     -0.054800
      5 C5          1.4030   -1.2600    2.2800 ca        1 VHA     -0.118000
      6 C6          0.0350   -1.0670    2.4160 ca        1 VHA     -0.129000
      7 C7         -0.6790   -0.4740    1.3610 ca        1 VHA      0.101100
      8 O8         -2.0290   -0.2560    1.5840 os        1 VHA     -0.336900
      9 C9         -2.8920   -0.5540    0.4800 c3        1 VHA      0.125400
     10 C10        -3.4210    0.7340   -0.1330 c3        1 VHA     -0.108400
     11 C11        -3.9310    0.5070   -1.5410 c3        1 VHA     -0.088400
     12 C12        -2.7720    0.4860   -2.5230 c3        1 VHA      0.121400
     13 O13        -3.2020   -0.2440   -3.6810 os        1 VHA     -0.328900
     14 C14        -2.1760   -0.7860   -4.4330 ca        1 VHA      0.130100
     15 C15        -0.8450   -0.3620   -4.3460 ca        1 VHA     -0.192000
     16 C16        -2.5510   -1.8010   -5.3320 ca        1 VHA     -0.146000
     17 C17        -1.5690   -2.3990   -6.1140 ca        1 VHA     -0.095000
     18 C18        -0.2320   -2.0200   -5.9950 ca        1 VHA     -0.136000
     19 C19         0.1350   -0.9960   -5.1140 ca        1 VHA     -0.014100
     20 S20         1.7680   -0.5360   -5.1630 ss        1 VHA     -0.138200
     21 C21         2.1710    0.0590   -3.5950 ca        1 VHA      0.535600
     22 N22         3.1950    0.9420   -3.5800 nb        1 VHA     -0.739000
     23 C23         1.5410   -0.3760   -2.4120 ca        1 VHA     -0.419600
     24 C24         2.0160    0.1450   -1.1860 cp        1 VHA      0.541800
     25 N25         3.0370    1.0250   -1.1200 nb        1 VHA     -0.742000
     26 C26         3.6210    1.3790   -2.3330 ca        1 VHA      0.874900
     27 N27         4.7550    2.1960   -2.2880 nh        1 VHA     -0.925500
     28 H1         -0.5790    0.4170   -0.6150 ha        1 VHA      0.139000
     29 H4          3.8720   -1.8840    1.7640 hc        1 VHA      0.051367
     30 H4A         3.8160   -1.4930   -0.0050 hc        1 VHA      0.051367
     31 H4B         4.1010   -0.1730    1.2050 hc        1 VHA      0.051367
     32 H5          1.9670   -1.7250    3.1040 ha        1 VHA      0.138000
     33 H6         -0.4960   -1.3620    3.3330 ha        1 VHA      0.150000
     34 H9         -2.3720   -1.1880   -0.2840 h1        1 VHA      0.055200
     35 H9A        -3.7310   -1.1440    0.9390 h1        1 VHA      0.055200
     36 H10        -2.6110    1.5110   -0.1320 hc        1 VHA      0.059200
     37 H10A       -4.2520    1.1290    0.5080 hc        1 VHA      0.059200
     38 H11        -4.4950   -0.4610   -1.6020 hc        1 VHA      0.061700
     39 H11A       -4.6430    1.3240   -1.8250 hc        1 VHA      0.061700
     40 H12        -2.4880    1.5230   -2.8430 h1        1 VHA      0.043200
     41 H12A       -1.8820   -0.0220   -2.0620 h1        1 VHA      0.043200
     42 H15        -0.5610    0.4730   -3.6870 ha        1 VHA      0.147000
     43 H16        -3.6050   -2.1030   -5.4020 ha        1 VHA      0.152000
     44 H17        -1.8490   -3.1930   -6.8240 ha        1 VHA      0.139000
     45 H18         0.5390   -2.5260   -6.5970 ha        1 VHA      0.146000
     46 H23         0.7230   -1.1060   -2.4290 ha        1 VHA      0.164000
     47 HN27        4.8970    2.7140   -1.4520 hn        1 VHA      0.429300
     48 HN2A        5.0160    2.6440   -3.1360 hn        1 VHA      0.429300
@<TRIPOS>BOND
     1    1    2 ar
     2    1    7 ar
     3    1   28 1
     4    2    3 ar
     5    2   24 1
     6    3    4 1
     7    3    5 ar
     8    4   29 1
     9    4   30 1
    10    4   31 1
    11    5    6 ar
    12    5   32 1
    13    6    7 ar
    14    6   33 1
    15    7    8 1
    16    8    9 1
    17    9   10 1
    18    9   34 1
    19    9   35 1
    20   10   11 1
    21   10   36 1
    22   10   37 1
    23   11   12 1
    24   11   38 1
    25   11   39 1
    26   12   13 1
    27   12   40 1
    28   12   41 1
    29   13   14 1
    30   14   15 ar
    31   14   16 ar
    32   15   19 ar
    33   15   42 1
    34   16   17 ar
    35   16   43 1
    36   17   18 ar
    37   17   44 1
    38   18   19 ar
    39   18   45 1
    40   19   20 1
    41   20   21 1
    42   21   22 ar
    43   21   23 ar
    44   22   26 ar
    45   23   24 ar
    46   23   46 1
    47   24   25 ar
    48   25   26 ar
    49   26   27 1
    50   27   47 1
    51   27   48 1
@<TRIPOS>SUBSTRUCTURE
     1 VHA         1 TEMP              0 ****  ****    0 ROOT
