@<TRIPOS>MOLECULE
VHC
   52    55     1     0     0
SMALL
bcc


@<TRIPOS>ATOM
      1 C1          0.1530   -0.5160   -0.1780 c3        1 VHC     -0.085800
      2 C2          1.6130   -0.2900   -0.0810 ca        1 VHC      0.047700
      3 C3          2.2830   -0.6370    1.0980 ca        1 VHC     -0.159000
      4 C4          3.6590   -0.4430    1.2590 ca        1 VHC      0.060700
      5 C5          4.3120   -0.8350    2.5260 c3        1 VHC     -0.080800
      6 C6          4.3880    0.1270    0.1940 cp        1 VHC     -0.150500
      7 C7          3.7350    0.4870   -0.9820 ca        1 VHC     -0.075000
      8 C8          2.3550    0.2700   -1.1470 ca        1 VHC     -0.228600
      9 C9          1.6640    0.6140   -2.3830 c         1 VHC      0.579700
     10 O10         0.4610    0.6950   -2.6040 o         1 VHC     -0.445100
     11 N11         2.5520    0.9060   -3.5850 n4        1 VHC     -0.677800
     12 C13         1.8840    0.6920   -4.9000 c3        1 VHC      0.113800
     13 C14         2.7700    1.0800   -6.0760 c3        1 VHC     -0.117400
     14 C15         4.0270    0.2350   -6.2010 c3        1 VHC      0.116400
     15 O16         4.8540    0.5740   -5.0810 os        1 VHC     -0.397900
     16 C17         6.0510   -0.1250   -4.9630 ca        1 VHC      0.104100
     17 C18         6.7850    0.1920   -3.8090 ca        1 VHC     -0.152000
     18 C19         6.5130   -1.0690   -5.8830 ca        1 VHC     -0.176000
     19 C20         7.7200   -1.7210   -5.6170 ca        1 VHC     -0.079000
     20 C21         8.4310   -1.4560   -4.4510 ca        1 VHC     -0.115000
     21 C22         7.9670   -0.4960   -3.5360 ca        1 VHC     -0.019100
     22 S23         8.9930   -0.2040   -2.2150 ss        1 VHC     -0.085200
     23 C24         7.9720    0.2390   -0.9020 ca        1 VHC      0.545600
     24 N25         8.5690    0.9200    0.0950 nb        1 VHC     -0.732000
     25 C26         6.6050   -0.1090   -0.8570 ca        1 VHC     -0.458600
     26 C27         5.8490    0.3560    0.2400 cp        1 VHC      0.530800
     27 N28         6.3910    1.0350    1.2690 nb        1 VHC     -0.755000
     28 C29         7.7690    1.2640    1.1870 ca        1 VHC      0.914900
     29 N30         8.3830    1.8700    2.2620 nh        1 VHC     -0.940500
     30 H1         -0.2410   -1.0370    0.7300 hc        1 VHC      0.074033
     31 H1A        -0.0920   -1.1380   -1.0770 hc        1 VHC      0.074033
     32 H1B        -0.3810    0.4630   -0.2850 hc        1 VHC      0.074033
     33 H3          1.7040   -1.0770    1.9290 ha        1 VHC      0.167000
     34 H5          5.2820   -1.3570    2.3290 hc        1 VHC      0.076367
     35 H5A         3.6570   -1.5130    3.1290 hc        1 VHC      0.076367
     36 H5B         4.5300    0.0810    3.1360 hc        1 VHC      0.076367
     37 H7          4.3470    0.9640   -1.7660 ha        1 VHC      0.132000
     38 HN11        3.3930    0.3080   -3.5450 hn        1 VHC      0.465300
     39 H13         0.9350    1.3040   -4.9150 hx        1 VHC      0.111700
     40 H13A        1.6000   -0.3980   -4.9620 hx        1 VHC      0.111700
     41 H14         2.1610    0.9380   -7.0110 hc        1 VHC      0.097700
     42 H14A        3.0520    2.1650   -6.0150 hc        1 VHC      0.097700
     43 H15         3.7900   -0.8610   -6.1760 h1        1 VHC      0.068700
     44 H15A        4.5680    0.4860   -7.1530 h1        1 VHC      0.068700
     45 H18         6.4250    0.9880   -3.1400 ha        1 VHC      0.146000
     46 H19         5.9570   -1.3010   -6.8010 ha        1 VHC      0.147000
     47 H20         8.1050   -2.4620   -6.3370 ha        1 VHC      0.156000
     48 H21         9.3670   -2.0010   -4.2410 ha        1 VHC      0.163000
     49 H26         6.1480   -0.7470   -1.6220 ha        1 VHC      0.155000
     50 HN30        9.3370    2.1290    2.1960 hn        1 VHC      0.457300
     51 HN3A        7.8310    2.2280    3.0030 hn        1 VHC      0.457300
     52 H112        2.8710    1.8800   -3.5280 hn        1 VHC      0.465300
@<TRIPOS>BOND
     1    1    2 1   
     2    1   30 1   
     3    1   31 1   
     4    1   32 1   
     5    2    3 ar  
     6    2    8 ar  
     7    3    4 ar  
     8    3   33 1   
     9    4    5 1   
    10    4    6 ar  
    11    5   34 1   
    12    5   35 1   
    13    5   36 1   
    14    6    7 ar  
    15    6   26 1   
    16    7    8 ar  
    17    7   37 1   
    18    8    9 1   
    19    9   10 2   
    20    9   11 1   
    21   11   12 1   
    22   11   38 1   
    23   11   52 1   
    24   12   13 1   
    25   12   39 1   
    26   12   40 1   
    27   13   14 1   
    28   13   41 1   
    29   13   42 1   
    30   14   15 1   
    31   14   43 1   
    32   14   44 1   
    33   15   16 1   
    34   16   17 ar  
    35   16   18 ar  
    36   17   21 ar  
    37   17   45 1   
    38   18   19 ar  
    39   18   46 1   
    40   19   20 ar  
    41   19   47 1   
    42   20   21 ar  
    43   20   48 1   
    44   21   22 1   
    45   22   23 1   
    46   23   24 ar  
    47   23   25 ar  
    48   24   28 ar  
    49   25   26 ar  
    50   25   49 1   
    51   26   27 ar  
    52   27   28 ar  
    53   28   29 1   
    54   29   50 1   
    55   29   51 1   
@<TRIPOS>SUBSTRUCTURE
     1 VHC         1 TEMP              0 ****  ****    0 ROOT
