@<TRIPOS>MOLECULE
VHD
   41    43     1     0     0
SMALL
bcc


@<TRIPOS>ATOM
      1 C1           0.0000     0.0000     0.0000 c3         1 VHD       0.004900
      2 C2           1.5300     0.0000     0.0000 c3         1 VHD       0.008600
      3 C3           2.0400     0.0000     1.4430 c3         1 VHD       0.004900
      4 C4           2.0320    -1.2320    -0.7100 ca         1 VHD      -0.148300
      5 C5           1.6970    -2.4800    -0.2360 ca         1 VHD      -0.032000
      6 C6           2.1620    -3.6230    -0.8930 ca         1 VHD      -0.214600
      7 C7           1.8060    -4.9610    -0.3900 c          1 VHD       0.648700
      8 O8           2.6530    -5.8300    -0.3220 o          1 VHD      -0.636100
      9 N9           0.5400    -5.2210    -0.0050 n          1 VHD      -0.163800
     10 C10          0.0530    -6.4580     0.6150 c3         1 VHD       0.116300
     11 C11         -1.4230    -6.2910     0.8700 ca         1 VHD      -0.113800
     12 C12         -2.3540    -7.1500     1.4290 ca         1 VHD      -0.071500
     13 C13         -3.6730    -6.7560     1.5540 ca         1 VHD      -0.098000
     14 C14         -4.0640    -5.5030     1.1200 ca         1 VHD      -0.098000
     15 C15         -3.1350    -4.6460     0.5610 ca         1 VHD      -0.071500
     16 C16         -1.8130    -5.0400     0.4360 ca         1 VHD      -0.113800
     17 C17         -0.6100    -4.3200    -0.1200 c3         1 VHD       0.116300
     18 C18          2.9670    -3.4910    -2.0340 ca         1 VHD       0.227100
     19 O19          3.4220    -4.5950    -2.6780 oh         1 VHD      -0.476100
     20 C20          3.2970    -2.2300    -2.5010 ca         1 VHD      -0.272000
     21 C21          2.8260    -1.1020    -1.8440 ca         1 VHD       0.196100
     22 O22          3.1470     0.1320    -2.3080 oh         1 VHD      -0.480100
     23 H11C        -0.3610    -0.4460    -0.9190 hc         1 VHD       0.004200
     24 H12C        -0.3610     1.0190     0.0730 hc         1 VHD       0.004200
     25 H13C        -0.3610    -0.5730     0.8460 hc         1 VHD       0.004200
     26 H2           1.8920     0.8840    -0.5110 hc         1 VHD       0.044700
     27 H31C         1.8290     0.9590     1.9000 hc         1 VHD       0.004200
     28 H32C         3.1090    -0.1750     1.4480 hc         1 VHD       0.004200
     29 H33C         1.5430    -0.7840     2.0010 hc         1 VHD       0.004200
     30 H5           1.1370    -2.5760     0.6860 ha         1 VHD       0.123000
     31 H101         0.5610    -6.6050     1.5600 h1         1 VHD       0.028450
     32 H102         0.2040    -7.2820    -0.0700 h1         1 VHD       0.028450
     33 H171        -0.4280    -3.4180     0.4520 h1         1 VHD       0.028450
     34 H172        -0.7800    -4.0740    -1.1610 h1         1 VHD       0.028450
     35 H12         -2.0490    -8.1320     1.7700 ha         1 VHD       0.104000
     36 H13         -4.4010    -7.4280     1.9930 ha         1 VHD       0.105000
     37 H14         -5.0970    -5.1930     1.2180 ha         1 VHD       0.105000
     38 H15         -3.4410    -3.6640     0.2210 ha         1 VHD       0.104000
     39 H19          4.3630    -4.5650    -2.7270 ho         1 VHD       0.411000
     40 H20          3.9170    -2.1240    -3.3820 ha         1 VHD       0.123000
     41 H22          4.0320     0.1260    -2.6320 ho         1 VHD       0.406000
@<TRIPOS>BOND
     1     1     2 1   
     2     1    23 1   
     3     1    24 1   
     4     1    25 1   
     5     2     3 1   
     6     2     4 1   
     7     2    26 1   
     8     3    27 1   
     9     3    28 1   
    10     3    29 1   
    11     4     5 ar  
    12     4    21 ar  
    13     5     6 ar  
    14     5    30 1   
    15     6     7 1   
    16     6    18 ar  
    17     7     8 2   
    18     7     9 1   
    19     9    10 1   
    20     9    17 1   
    21    10    11 1   
    22    10    31 1   
    23    10    32 1   
    24    11    12 ar  
    25    11    16 ar  
    26    12    13 ar  
    27    12    35 1   
    28    13    14 ar  
    29    13    36 1   
    30    14    15 ar  
    31    14    37 1   
    32    15    16 ar  
    33    15    38 1   
    34    16    17 1   
    35    17    33 1   
    36    17    34 1   
    37    18    19 1   
    38    18    20 ar  
    39    19    39 1   
    40    20    21 ar  
    41    20    40 1   
    42    21    22 1   
    43    22    41 1   
@<TRIPOS>SUBSTRUCTURE
     1 VHD         1 TEMP              0 ****  ****    0 ROOT
