@<TRIPOS>MOLECULE
molecule
   41    43     1     0     0
SMALL
bcc


@<TRIPOS>ATOM
      1 C1           0.0000     0.0000     0.0000 c3         1 VHD      -0.086100
      2 C2           1.5300     0.0000     0.0000 c3         1 VHD      -0.025400
      3 C3           2.0400     0.0000     1.4430 c3         1 VHD      -0.086100
      4 C4           2.0320    -1.2320    -0.7100 ca         1 VHD      -0.125300
      5 C5           1.6970    -2.4800    -0.2360 ca         1 VHD      -0.058000
      6 C6           2.1620    -3.6230    -0.8930 ca         1 VHD      -0.187600
      7 C7           1.8060    -4.9610    -0.3900 c          1 VHD       0.712700
      8 O8           2.6530    -5.8300    -0.3220 o          1 VHD      -0.588100
      9 N9           0.5400    -5.2210    -0.0050 n          1 VHD      -0.494800
     10 C10          0.0530    -6.4580     0.6150 c3         1 VHD       0.150300
     11 C11         -1.4230    -6.2910     0.8700 ca         1 VHD      -0.106300
     12 C12         -2.3540    -7.1500     1.4290 ca         1 VHD      -0.106000
     13 C13         -3.6730    -6.7560     1.5540 ca         1 VHD      -0.123500
     14 C14         -4.0640    -5.5030     1.1200 ca         1 VHD      -0.123500
     15 C15         -3.1350    -4.6460     0.5610 ca         1 VHD      -0.106000
     16 C16         -1.8130    -5.0400     0.4360 ca         1 VHD      -0.106300
     17 C17         -0.6100    -4.3200    -0.1200 c3         1 VHD       0.150300
     18 C18          2.9670    -3.4910    -2.0340 ca         1 VHD       0.196100
     19 O19          3.4220    -4.5950    -2.6780 oh         1 VHD      -0.494100
     20 C20          3.2970    -2.2300    -2.5010 ca         1 VHD      -0.273000
     21 C21          2.8260    -1.1020    -1.8440 ca         1 VHD       0.169100
     22 O22          3.1470     0.1320    -2.3080 oh         1 VHD      -0.500100
     23 H11C        -0.3610    -0.4460    -0.9190 hc         1 VHD       0.036200
     24 H12C        -0.3610     1.0190     0.0730 hc         1 VHD       0.036200
     25 H13C        -0.3610    -0.5730     0.8460 hc         1 VHD       0.036200
     26 H2           1.8920     0.8840    -0.5110 hc         1 VHD       0.073700
     27 H31C         1.8290     0.9590     1.9000 hc         1 VHD       0.036200
     28 H32C         3.1090    -0.1750     1.4480 hc         1 VHD       0.036200
     29 H33C         1.5430    -0.7840     2.0010 hc         1 VHD       0.036200
     30 H5           1.1370    -2.5760     0.6860 ha         1 VHD       0.150000
     31 H101         0.5610    -6.6050     1.5600 h1         1 VHD       0.060200
     32 H102         0.2040    -7.2820    -0.0700 h1         1 VHD       0.060200
     33 H171        -0.4280    -3.4180     0.4520 h1         1 VHD       0.060200
     34 H172        -0.7800    -4.0740    -1.1610 h1         1 VHD       0.060200
     35 H12         -2.0490    -8.1320     1.7700 ha         1 VHD       0.132500
     36 H13         -4.4010    -7.4280     1.9930 ha         1 VHD       0.134000
     37 H14         -5.0970    -5.1930     1.2180 ha         1 VHD       0.134000
     38 H15         -3.4410    -3.6640     0.2210 ha         1 VHD       0.132500
     39 H19          4.3630    -4.5650    -2.7270 ho         1 VHD       0.430000
     40 H20          3.9170    -2.1240    -3.3820 ha         1 VHD       0.144000
     41 H22          4.0320     0.1260    -2.6320 ho         1 VHD       0.425000
@<TRIPOS>BOND
     1     1     2 1
     2     2     3 1
     3     2     4 1
     4     4     5 ar
     5     4    21 ar
     6     5     6 ar
     7     6     7 1
     8     6    18 ar
     9     7     8 2
    10     7     9 1
    11     9    10 1
    12     9    17 1
    13    10    11 1
    14    11    12 ar
    15    11    16 ar
    16    12    13 ar
    17    13    14 ar
    18    14    15 ar
    19    15    16 ar
    20    16    17 1
    21    18    19 1
    22    18    20 ar
    23    20    21 ar
    24    21    22 1
    25     1    23 1
    26     1    24 1
    27     1    25 1
    28     2    26 1
    29     3    27 1
    30     3    28 1
    31     3    29 1
    32     5    30 1
    33    10    31 1
    34    10    32 1
    35    17    33 1
    36    17    34 1
    37    12    35 1
    38    13    36 1
    39    14    37 1
    40    15    38 1
    41    19    39 1
    42    20    40 1
    43    22    41 1
@<TRIPOS>SUBSTRUCTURE
     1 VHD         1 TEMP              0 ****  ****    0 ROOT
