@<TRIPOS>MOLECULE
VHE
   52    54     1     0     0
SMALL
bcc


@<TRIPOS>ATOM
      1 C1          0.0680   -0.0410    0.2200 cp        1 VHE     -0.154500
      2 C2          1.4630   -0.2380    0.0740 ca        1 VHE      0.077700
      3 C3          2.2680   -0.2060    1.2180 ca        1 VHE     -0.149000
      4 C4          1.7440    0.0070    2.4980 ca        1 VHE      0.060700
      5 C5          0.3440    0.1470    2.6340 ca        1 VHE     -0.244600
      6 C6         -0.4730    0.1220    1.4900 ca        1 VHE     -0.081000
      7 C7         -0.2150    0.3680    3.9560 c         1 VHE      0.595700
      8 C8          2.6500    0.0880    3.6640 c3        1 VHE     -0.096800
      9 O9          0.1900    0.9770    4.9280 o         1 VHE     -0.389100
     10 N10        -1.5640   -0.3650    4.2140 n4        1 VHE     -0.697800
     11 C11         2.0930   -0.4760   -1.2420 c3        1 VHE     -0.087800
     12 C12        -0.8620    0.0390   -0.9300 cp        1 VHE      0.546800
     13 C13        -2.1010   -0.6410   -0.8420 ca        1 VHE     -0.474600
     14 C14        -3.0010   -0.4760   -1.9150 ca        1 VHE      0.540600
     15 N15        -2.7220    0.2740   -2.9910 nb        1 VHE     -0.715000
     16 C16        -1.4540    0.8720   -3.0290 ca        1 VHE      0.923900
     17 N17        -0.5170    0.7900   -1.9900 nb        1 VHE     -0.740000
     18 N18        -1.1260    1.6090   -4.1360 nh        1 VHE     -0.918500
     19 C19        -2.7350    0.5150    3.9550 c3        1 VHE      0.107800
     20 C20        -3.9960   -0.2500    3.5470 c3        1 VHE     -0.134400
     21 C21        -4.8720    0.6580    2.6850 c3        1 VHE      0.108800
     22 N22        -6.1380    0.0100    2.2420 n4        1 VHE     -0.693800
     23 C23        -6.6660    0.6320    0.9360 c         1 VHE      0.548100
     24 C24        -5.9330    0.3040   -0.3280 c3        1 VHE     -0.156400
     25 O25        -7.6400    1.3410    1.0950 o         1 VHE     -0.361100
     26 C26        -5.1830   -1.0030   -0.3500 c3        1 VHE     -0.091300
     27 S27        -4.5210   -1.3080   -1.9510 ss        1 VHE     -0.139400
     28 H3          3.3600   -0.3420    1.1080 ha        1 VHE      0.182000
     29 H6         -1.5610    0.2730    1.5750 ha        1 VHE      0.104000
     30 H8          2.7300    1.1540    4.0070 hc        1 VHE      0.081700
     31 H8A         3.6780   -0.2740    3.4090 hc        1 VHE      0.081700
     32 H8B         2.2670   -0.5200    4.5210 hc        1 VHE      0.081700
     33 HN10       -1.5830   -0.6770    5.1930 hn        1 VHE      0.459800
     34 H11         1.4620   -1.1470   -1.8770 hc        1 VHE      0.084367
     35 H11A        3.1030   -0.9450   -1.1280 hc        1 VHE      0.084367
     36 H11B        2.2200    0.5000   -1.7820 hc        1 VHE      0.084367
     37 H13        -2.3040   -1.3330   -0.0200 ha        1 VHE      0.134000
     38 HN18       -0.2300    2.0310   -4.2070 hn        1 VHE      0.471800
     39 HN1A       -1.7520    1.6560   -4.9060 hn        1 VHE      0.471800
     40 H19        -2.9360    1.1130    4.8940 hx        1 VHE      0.122200
     41 H19A       -2.4450    1.2490    3.1460 hx        1 VHE      0.122200
     42 H20        -4.5510   -0.5740    4.4700 hc        1 VHE      0.088700
     43 H20A       -3.7380   -1.1770    2.9640 hc        1 VHE      0.088700
     44 H21        -5.1420    1.5960    3.2560 hx        1 VHE      0.119200
     45 H21A       -4.2970    0.9610    1.7590 hx        1 VHE      0.119200
     46 HN22       -6.8530    0.1160    2.9760 hn        1 VHE      0.464300
     47 H24        -6.7100    0.3090   -1.1560 hc        1 VHE      0.145700
     48 H24A       -5.2380    1.1690   -0.5390 hc        1 VHE      0.145700
     49 H26        -5.8830   -1.8630   -0.1740 h1        1 VHE      0.076700
     50 H26A       -4.3840   -1.0260    0.4300 h1        1 VHE      0.076700
     51 H102       -1.5940   -1.1900    3.6070 hn        1 VHE      0.459800
     52 H222       -5.9860   -0.9920    2.0820 hn        1 VHE      0.464300
@<TRIPOS>BOND
     1    1    2 ar  
     2    1    6 ar  
     3    1   12 1   
     4    2    3 ar  
     5    2   11 1   
     6    3    4 ar  
     7    3   28 1   
     8    4    5 ar  
     9    4    8 1   
    10    5    6 ar  
    11    5    7 1   
    12    6   29 1   
    13    7    9 2   
    14    7   10 1   
    15    8   30 1   
    16    8   31 1   
    17    8   32 1   
    18   10   19 1   
    19   10   33 1   
    20   10   51 1   
    21   11   34 1   
    22   11   35 1   
    23   11   36 1   
    24   12   13 ar  
    25   12   17 ar  
    26   13   14 ar  
    27   13   37 1   
    28   14   15 ar  
    29   14   27 1   
    30   15   16 ar  
    31   16   17 ar  
    32   16   18 1   
    33   18   38 1   
    34   18   39 1   
    35   19   20 1   
    36   19   40 1   
    37   19   41 1   
    38   20   21 1   
    39   20   42 1   
    40   20   43 1   
    41   21   22 1   
    42   21   44 1   
    43   21   45 1   
    44   22   23 1   
    45   22   46 1   
    46   22   52 1   
    47   23   24 1   
    48   23   25 2   
    49   24   26 1   
    50   24   47 1   
    51   24   48 1   
    52   26   27 1   
    53   26   49 1   
    54   26   50 1   
@<TRIPOS>SUBSTRUCTURE
     1 VHE         1 TEMP              0 ****  ****    0 ROOT
