@<TRIPOS>MOLECULE
VHH
   37    38     1     0     0
SMALL
bcc


@<TRIPOS>ATOM
      1 N1           0.0000     0.0000     0.0000 n          1 VHH      -0.186800
      2 S1          -0.0970    -2.4890     2.2080 ss         1 VHH      -0.387200
      3 C2           0.9320    -1.2590     3.1080 c3         1 VHH       0.080400
      4 N2           1.8820     0.0000     1.2260 n          1 VHH      -0.166800
      5 C3           1.3400     0.0000     0.0000 c          1 VHH       0.646500
      6 O3           2.0040     0.0000    -1.0190 o          1 VHH      -0.733500
      7 C4           0.8050    -0.0010     2.2280 c3         1 VHH       0.018700
      8 C5          -0.4810    -0.0010     1.3910 c3         1 VHH       0.024700
      9 C6          -1.3370    -1.2590     1.6310 c3         1 VHH       0.067700
     10 C7           2.3870    -1.7230     3.1850 c3         1 VHH      -0.059400
     11 C8           2.4710    -3.0060     4.0150 c3         1 VHH      -0.043400
     12 C9           3.9270    -3.4690     4.0910 c3         1 VHH      -0.014400
     13 C10          4.0100    -4.7520     4.9210 c3         1 VHH      -0.134400
     14 C11          5.4450    -5.2090     4.9970 c          1 VHH       0.980600
     15 O11          5.7610    -6.3210     5.6790 o          1 VHH      -0.905300
     16 O12          6.3120    -4.5730     4.4450 o          1 VHH      -0.905300
     17 C17          3.3170    -0.0000     1.5200 c3         1 VHH       0.100300
     18 C18         -0.8500     0.0060    -1.1930 c3         1 VHH       0.134300
     19 H2           0.5280    -1.0750     4.0970 h1         1 VHH       0.055700
     20 H4           0.8570     0.8930     2.8370 h1         1 VHH       0.034700
     21 H5          -1.0590     0.8930     1.5890 h1         1 VHH       0.028700
     22 H6          -2.0800    -1.0760     2.3980 h1         1 VHH       0.050200
     23 H6A         -1.8010    -1.5880     0.7080 h1         1 VHH       0.050200
     24 H7           2.9880    -0.9520     3.6520 hc         1 VHH       0.046700
     25 H7A          2.7590    -1.9150     2.1860 hc         1 VHH       0.046700
     26 H8           1.8710    -3.7770     3.5480 hc         1 VHH       0.016200
     27 H8A          2.1000    -2.8140     5.0140 hc         1 VHH       0.016200
     28 H9           4.5280    -2.6980     4.5580 hc         1 VHH       0.021200
     29 H9A          4.2990    -3.6610     3.0920 hc         1 VHH       0.021200
     30 H10          3.6390    -4.5610     5.9210 hc         1 VHH       0.005700
     31 H10A         3.4100    -5.5240     4.4540 hc         1 VHH       0.005700
     32 H17          3.4710     0.2340     2.5670 h1         1 VHH       0.023033
     33 H17A         3.7300    -0.9780     1.3050 h1         1 VHH       0.023033
     34 H17B         3.8120     0.7440     0.9070 h1         1 VHH       0.023033
     35 H18         -0.8830    -0.9900    -1.6180 h1         1 VHH       0.005367
     36 H18A        -0.4450     0.6970    -1.9220 h1         1 VHH       0.005367
     37 H18B        -1.8520     0.3150    -0.9200 h1         1 VHH       0.005367
@<TRIPOS>BOND
     1     1     5 1   
     2     1     8 1   
     3     1    18 1   
     4     2     3 1   
     5     2     9 1   
     6     3     7 1   
     7     3    10 1   
     8     3    19 1   
     9     4     5 1   
    10     4     7 1   
    11     4    17 1   
    12     5     6 2   
    13     7     8 1   
    14     7    20 1   
    15     8     9 1   
    16     8    21 1   
    17     9    22 1   
    18     9    23 1   
    19    10    11 1   
    20    10    24 1   
    21    10    25 1   
    22    11    12 1   
    23    11    26 1   
    24    11    27 1   
    25    12    13 1   
    26    12    28 1   
    27    12    29 1   
    28    13    14 1   
    29    13    30 1   
    30    13    31 1   
    31    14    15 1   
    32    14    16 1   
    33    17    32 1   
    34    17    33 1   
    35    17    34 1   
    36    18    35 1   
    37    18    36 1   
    38    18    37 1   
@<TRIPOS>SUBSTRUCTURE
     1 VHH         1 TEMP              0 ****  ****    0 ROOT
