@<TRIPOS>MOLECULE
molecule
   47    49     1     0     0
SMALL
bcc


@<TRIPOS>ATOM
      1 N1           0.0000     0.0000     0.0000 n          1 VHI      -0.480400
      2 S1          -0.0960    -2.4880     2.2100 ss         1 VHI      -0.332200
      3 C2           0.9320    -1.2580     3.1100 c3         1 VHI       0.029400
      4 N2           1.8830     0.0000     1.2260 ns         1 VHI      -0.580900
      5 C3           1.3400     0.0000     0.0000 c          1 VHI       0.811500
      6 O3           2.0040    -0.0010    -1.0180 o          1 VHI      -0.632500
      7 C4           0.8060    -0.0000     2.2280 c3         1 VHI       0.084700
      8 C5          -0.4800    -0.0000     1.3910 c3         1 VHI       0.108700
      9 C6          -1.3360    -1.2590     1.6320 c3         1 VHI       0.004700
     10 C7           2.3880    -1.7210     3.1870 c3         1 VHI      -0.069400
     11 C8           2.4790    -2.9730     4.0620 c3         1 VHI      -0.089400
     12 C9           3.9350    -3.4360     4.1390 c3         1 VHI      -0.063400
     13 C10          4.0270    -4.6870     5.0150 c3         1 VHI      -0.182400
     14 C11          5.4610    -5.1440     5.0900 c          1 VHI       0.891600
     15 O11          6.3220    -4.5310     4.5040 o          1 VHI      -0.855800
     16 O12          5.7820    -6.2310     5.8090 o          1 VHI      -0.855800
     17 C17         -0.7820     0.0050    -1.0970 c          1 VHI       0.789100
     18 O18         -0.2230     0.0100    -2.3220 os         1 VHI      -0.383900
     19 O19         -1.9900     0.0040    -0.9820 o          1 VHI      -0.607000
     20 C20         -1.1260     0.0150    -3.4590 c3         1 VHI       0.210700
     21 C21         -0.3260     0.0200    -4.7350 ca         1 VHI      -0.093300
     22 C22          0.0410    -1.1740    -5.3270 ca         1 VHI      -0.096500
     23 C23          0.7750    -1.1690    -6.4980 ca         1 VHI      -0.133500
     24 C24          1.1420     0.0310    -7.0790 ca         1 VHI      -0.118000
     25 C25          0.7740     1.2250    -6.4890 ca         1 VHI      -0.133500
     26 C26          0.0360     1.2200    -5.3190 ca         1 VHI      -0.096500
     27 H2           0.5280    -1.0730     4.0980 h1         1 VHI       0.077700
     28 HN2          2.8630     0.0000     1.4280 hn         1 VHI       0.377500
     29 H4           0.8580     0.8940     2.8360 h1         1 VHI       0.067700
     30 H5          -1.0590     0.8940     1.5890 h1         1 VHI       0.077700
     31 H6          -2.0790    -1.0750     2.3990 h1         1 VHI       0.090200
     32 H6A         -1.8000    -1.5890     0.7100 h1         1 VHI       0.090200
     33 H7           2.9950    -0.9340     3.6180 hc         1 VHI       0.054700
     34 H7A          2.7480    -1.9500     2.1910 hc         1 VHI       0.054700
     35 H8           1.8730    -3.7600     3.6310 hc         1 VHI       0.039200
     36 H8A          2.1200    -2.7440     5.0580 hc         1 VHI       0.039200
     37 H9           4.2950    -3.6650     3.1430 hc         1 VHI       0.046200
     38 H9A          4.5420    -2.6490     4.5700 hc         1 VHI       0.046200
     39 H10          3.6680    -4.4580     6.0110 hc         1 VHI       0.028700
     40 H10A         3.4200    -5.4740     4.5840 hc         1 VHI       0.028700
     41 H20         -1.7500     0.9000    -3.4200 h1         1 VHI       0.052700
     42 H20A        -1.7500    -0.8690    -3.4270 h1         1 VHI       0.052700
     43 H22         -0.2460    -2.1140    -4.8720 ha         1 VHI       0.134000
     44 H23          1.0620    -2.1060    -6.9610 ha         1 VHI       0.129000
     45 H24          1.7180     0.0350    -7.9970 ha         1 VHI       0.126000
     46 H25          1.0590     2.1650    -6.9450 ha         1 VHI       0.129000
     47 H26         -0.2520     2.1560    -4.8570 ha         1 VHI       0.134000
@<TRIPOS>BOND
     1     1     5 1
     2     1     8 1
     3     1    17 1
     4     2     3 1
     5     2     9 1
     6     3     7 1
     7     3    10 1
     8     4     5 1
     9     4     7 1
    10     5     6 2
    11     7     8 1
    12     8     9 1
    13    10    11 1
    14    11    12 1
    15    12    13 1
    16    13    14 1
    17    14    15 1
    18    14    16 1
    19    17    18 1
    20    17    19 2
    21    18    20 1
    22    20    21 1
    23    21    22 ar
    24    21    26 ar
    25    22    23 ar
    26    23    24 ar
    27    24    25 ar
    28    25    26 ar
    29     3    27 1
    30     4    28 1
    31     7    29 1
    32     8    30 1
    33     9    31 1
    34     9    32 1
    35    10    33 1
    36    10    34 1
    37    11    35 1
    38    11    36 1
    39    12    37 1
    40    12    38 1
    41    13    39 1
    42    13    40 1
    43    20    41 1
    44    20    42 1
    45    22    43 1
    46    23    44 1
    47    24    45 1
    48    25    46 1
    49    26    47 1
@<TRIPOS>SUBSTRUCTURE
     1 VHI         1 TEMP              0 ****  ****    0 ROOT
