@<TRIPOS>MOLECULE
VHI
   47    49     1     0     0
SMALL
bcc


@<TRIPOS>ATOM
      1 N1           0.0000     0.0000     0.0000 n          1 VHI      -0.108400
      2 S1          -0.0960    -2.4880     2.2100 ss         1 VHI      -0.387200
      3 C2           0.9320    -1.2580     3.1100 c3         1 VHI       0.071400
      4 N2           1.8830     0.0000     1.2260 ns         1 VHI      -0.194900
      5 C3           1.3400     0.0000     0.0000 c          1 VHI       0.611500
      6 O3           2.0040    -0.0010    -1.0180 o          1 VHI      -0.679500
      7 C4           0.8060    -0.0000     2.2280 c3         1 VHI      -0.001300
      8 C5          -0.4800    -0.0000     1.3910 c3         1 VHI       0.024700
      9 C6          -1.3360    -1.2590     1.6320 c3         1 VHI       0.070700
     10 C7           2.3880    -1.7210     3.1870 c3         1 VHI      -0.022400
     11 C8           2.4790    -2.9730     4.0620 c3         1 VHI      -0.041400
     12 C9           3.9350    -3.4360     4.1390 c3         1 VHI      -0.015400
     13 C10          4.0270    -4.6870     5.0150 c3         1 VHI      -0.133400
     14 C11          5.4610    -5.1440     5.0900 c          1 VHI       0.980600
     15 O11          6.3220    -4.5310     4.5040 o          1 VHI      -0.904800
     16 O12          5.7820    -6.2310     5.8090 o          1 VHI      -0.904800
     17 C17         -0.7820     0.0050    -1.0970 c          1 VHI       0.727100
     18 O18         -0.2230     0.0100    -2.3220 os         1 VHI      -0.362900
     19 O19         -1.9900     0.0040    -0.9820 o          1 VHI      -0.658000
     20 C20         -1.1260     0.0150    -3.4590 c3         1 VHI       0.290700
     21 C21         -0.3260     0.0200    -4.7350 ca         1 VHI      -0.111300
     22 C22          0.0410    -1.1740    -5.3270 ca         1 VHI      -0.069000
     23 C23          0.7750    -1.1690    -6.4980 ca         1 VHI      -0.107500
     24 C24          1.1420     0.0310    -7.0790 ca         1 VHI      -0.093000
     25 C25          0.7740     1.2250    -6.4890 ca         1 VHI      -0.107500
     26 C26          0.0360     1.2200    -5.3190 ca         1 VHI      -0.069000
     27 H2           0.5280    -1.0730     4.0980 h1         1 VHI       0.059700
     28 HN2          2.8630     0.0000     1.4280 hn         1 VHI       0.233500
     29 H4           0.8580     0.8940     2.8360 h1         1 VHI       0.039700
     30 H5          -1.0590     0.8940     1.5890 h1         1 VHI       0.047700
     31 H6          -2.0790    -1.0750     2.3990 h1         1 VHI       0.067200
     32 H6A         -1.8000    -1.5890     0.7100 h1         1 VHI       0.067200
     33 H7           2.9950    -0.9340     3.6180 hc         1 VHI       0.029700
     34 H7A          2.7480    -1.9500     2.1910 hc         1 VHI       0.029700
     35 H8           1.8730    -3.7600     3.6310 hc         1 VHI       0.017200
     36 H8A          2.1200    -2.7440     5.0580 hc         1 VHI       0.017200
     37 H9           4.2950    -3.6650     3.1430 hc         1 VHI       0.021700
     38 H9A          4.5420    -2.6490     4.5700 hc         1 VHI       0.021700
     39 H10          3.6680    -4.4580     6.0110 hc         1 VHI       0.005700
     40 H10A         3.4200    -5.4740     4.5840 hc         1 VHI       0.005700
     41 H20         -1.7500     0.9000    -3.4200 h1         1 VHI       0.010700
     42 H20A        -1.7500    -0.8690    -3.4270 h1         1 VHI       0.010700
     43 H22         -0.2460    -2.1140    -4.8720 ha         1 VHI       0.106000
     44 H23          1.0620    -2.1060    -6.9610 ha         1 VHI       0.101000
     45 H24          1.7180     0.0350    -7.9970 ha         1 VHI       0.098000
     46 H25          1.0590     2.1650    -6.9450 ha         1 VHI       0.101000
     47 H26         -0.2520     2.1560    -4.8570 ha         1 VHI       0.106000
@<TRIPOS>BOND
     1     1     5 1   
     2     1     8 1   
     3     1    17 1   
     4     2     3 1   
     5     2     9 1   
     6     3     7 1   
     7     3    10 1   
     8     3    27 1   
     9     4     5 1   
    10     4     7 1   
    11     4    28 1   
    12     5     6 2   
    13     7     8 1   
    14     7    29 1   
    15     8     9 1   
    16     8    30 1   
    17     9    31 1   
    18     9    32 1   
    19    10    11 1   
    20    10    33 1   
    21    10    34 1   
    22    11    12 1   
    23    11    35 1   
    24    11    36 1   
    25    12    13 1   
    26    12    37 1   
    27    12    38 1   
    28    13    14 1   
    29    13    39 1   
    30    13    40 1   
    31    14    15 1   
    32    14    16 1   
    33    17    18 1   
    34    17    19 2   
    35    18    20 1   
    36    20    21 1   
    37    20    41 1   
    38    20    42 1   
    39    21    22 ar  
    40    21    26 ar  
    41    22    23 ar  
    42    22    43 1   
    43    23    24 ar  
    44    23    44 1   
    45    24    25 ar  
    46    24    45 1   
    47    25    26 ar  
    48    25    46 1   
    49    26    47 1   
@<TRIPOS>SUBSTRUCTURE
     1 VHI         1 TEMP              0 ****  ****    0 ROOT
