@<TRIPOS>MOLECULE
VHS
   52    55     1     0     0
SMALL
bcc


@<TRIPOS>ATOM
      1 Cl2          0.0000     0.0000     0.0000 cl         1 VHS       0.018600
      2 C18          1.7360     0.0000     0.0000 ca         1 VHS      -0.060600
      3 C12          2.4290     0.0000     1.2000 ca         1 VHS       0.110900
      4 F            1.7550    -0.0000     2.3700 f          1 VHS      -0.117900
      5 C2           3.8130     0.0000     1.1980 ca         1 VHS      -0.111000
      6 C3           4.5030    -0.0000     0.0000 ca         1 VHS      -0.076000
      7 C13          3.8110     0.0010    -1.1970 ca         1 VHS      -0.025600
      8 Cl           4.6790     0.0010    -2.7010 cl         1 VHS       0.019600
      9 C17          2.4270    -0.0060    -1.1970 ca         1 VHS      -0.069300
     10 C21          1.6740    -0.0110    -2.5030 c3         1 VHS       0.205400
     11 C1           1.7430    -1.4070    -3.1250 c3         1 VHS      -0.036100
     12 O27          2.2600     0.9380    -3.3960 os         1 VHS      -0.277900
     13 C15          1.4590     1.4460    -4.3700 ca         1 VHS       0.041800
     14 C4           0.1730     0.9630    -4.5430 ca         1 VHS      -0.197000
     15 C19          1.9210     2.4650    -5.2050 ca         1 VHS       0.447200
     16 N22          3.2110     2.9630    -5.0360 nv         1 VHS      -0.643500
     17 N23          1.1480     2.9660    -6.1550 nb         1 VHS      -0.546000
     18 C5          -0.0810     2.5280    -6.3530 ca         1 VHS       0.350200
     19 C14         -0.6130     1.5180    -5.5580 ca         1 VHS      -0.043300
     20 C16         -1.9990     1.0350    -5.7850 cc         1 VHS      -0.273300
     21 C7          -2.8660     1.4900    -6.7350 cd         1 VHS      -0.234300
     22 C6          -2.6560     0.0210    -5.0610 cc         1 VHS       0.406200
     23 N24         -3.8580    -0.1170    -5.5550 nd         1 VHS      -0.649800
     24 N26         -4.0150     0.7940    -6.6070 na         1 VHS       0.506400
     25 C20         -5.2160     0.9600    -7.4280 c3         1 VHS      -0.043000
     26 C8          -5.0840     0.1210    -8.7030 c3         1 VHS      -0.041900
     27 C10         -6.3150     0.3460    -9.5840 c3         1 VHS       0.152800
     28 N25         -6.4230     1.7710    -9.9230 n7         1 VHS      -0.581200
     29 C11         -6.5990     2.5910    -8.7180 c3         1 VHS       0.152800
     30 C9          -5.3760     2.4340    -7.8090 c3         1 VHS      -0.041900
     31 H2           4.3560     0.0000     2.1360 ha         1 VHS       0.125000
     32 H3           5.5860     0.0000    -0.0000 ha         1 VHS       0.121000
     33 H21          0.6390     0.2540    -2.3240 h1         1 VHS       0.040700
     34 H11C         2.1840    -1.3420    -4.1120 hc         1 VHS       0.021367
     35 H12C         2.3500    -2.0510    -2.5000 hc         1 VHS       0.021367
     36 H13C         0.7430    -1.8180    -3.2030 hc         1 VHS       0.021367
     37 H4          -0.2140     0.1750    -3.9090 ha         1 VHS       0.134000
     38 H221         3.9700     2.5720    -5.5580 hn         1 VHS       0.273300
     39 H222         3.3720     3.7380    -4.4230 hn         1 VHS       0.273300
     40 H5          -0.6840     2.9630    -7.1410 h4         1 VHS      -0.018900
     41 H7          -2.6690     2.2700    -7.4600 h4         1 VHS       0.157000
     42 H6          -2.2390    -0.5440    -4.2370 h4         1 VHS       0.004100
     43 H20         -6.0880     0.6350    -6.8720 h1         1 VHS       0.056700
     44 H81C        -5.0160    -0.9270    -8.4390 hc         1 VHS       0.032200
     45 H82C        -4.1940     0.4230    -9.2420 hc         1 VHS       0.032200
     46 H91C        -5.5150     3.0250    -6.9120 hc         1 VHS       0.032200
     47 H92C        -4.4900     2.7680    -8.3360 hc         1 VHS       0.032200
     48 H101        -7.2030     0.0360    -9.0470 h1         1 VHS       0.010200
     49 H102        -6.2160    -0.2330   -10.4940 h1         1 VHS       0.010200
     50 H25         -7.2010     1.9100   -10.5370 hn         1 VHS       0.256800
     51 H111        -6.7030     3.6310    -9.0020 h1         1 VHS       0.010200
     52 H112        -7.4850     2.2660    -8.1870 h1         1 VHS       0.010200
@<TRIPOS>BOND
     1     1     2 1   
     2     2     3 ar  
     3     2     9 ar  
     4     3     4 1   
     5     3     5 ar  
     6     5     6 ar  
     7     5    31 1   
     8     6     7 ar  
     9     6    32 1   
    10     7     8 1   
    11     7     9 ar  
    12     9    10 1   
    13    10    11 1   
    14    10    12 1   
    15    10    33 1   
    16    11    34 1   
    17    11    35 1   
    18    11    36 1   
    19    12    13 1   
    20    13    14 ar  
    21    13    15 ar  
    22    14    19 ar  
    23    14    37 1   
    24    15    16 1   
    25    15    17 ar  
    26    16    38 1   
    27    16    39 1   
    28    17    18 ar  
    29    18    19 ar  
    30    18    40 1   
    31    19    20 1   
    32    20    21 2   
    33    20    22 1   
    34    21    24 1   
    35    21    41 1   
    36    22    23 2   
    37    22    42 1   
    38    23    24 1   
    39    24    25 1   
    40    25    26 1   
    41    25    30 1   
    42    25    43 1   
    43    26    27 1   
    44    26    44 1   
    45    26    45 1   
    46    27    28 1   
    47    27    48 1   
    48    27    49 1   
    49    28    29 1   
    50    28    50 1   
    51    29    30 1   
    52    29    51 1   
    53    29    52 1   
    54    30    46 1   
    55    30    47 1   
@<TRIPOS>SUBSTRUCTURE
     1 VHS         1 TEMP              0 ****  ****    0 ROOT
