@<TRIPOS>MOLECULE
molecule
   46    48     1     0     0
SMALL
bcc


@<TRIPOS>ATOM
      1 FAG          0.0000     0.0000     0.0000 f          1 VHT      -0.133900
      2 CAW          1.3520     0.0000     0.0000 ca         1 VHT       0.165900
      3 CAM          2.0430     0.0000     1.2000 ca         1 VHT      -0.213000
      4 CAV          3.4280    -0.0000     1.1970 ca         1 VHT       0.168900
      5 FAF          4.1040    -0.0010     2.3670 f          1 VHT      -0.130900
      6 CAJ          4.1180     0.0010    -0.0020 ca         1 VHT      -0.183000
      7 CAK          3.4260     0.0010    -1.1990 ca         1 VHT      -0.057000
      8 CAX          2.0450    -0.0040    -1.1990 ca         1 VHT      -0.170300
      9 CAO          1.2910    -0.0040    -2.5040 c3         1 VHT       0.161300
     10 NAQ          0.7430    -1.3390    -2.7530 ns         1 VHT      -0.586900
     11 CAU          0.0260    -1.5770    -3.8690 c          1 VHT       0.720300
     12 OAC         -0.2440    -0.6620    -4.6240 o          1 VHT      -0.601100
     13 CAZ         -0.4270    -2.9370    -4.1740 cc         1 VHT      -0.405400
     14 CBA          0.3440    -3.7750    -5.0180 c          1 VHT       0.744700
     15 OAD          1.3850    -3.3500    -5.4850 o          1 VHT      -0.618500
     16 NBD         -0.0440    -5.0260    -5.3150 n          1 VHT      -0.299800
     17 OAE          0.7700    -5.8150    -6.1650 oh         1 VHT      -0.338100
     18 CBC         -1.2110    -5.5630    -4.8180 ca         1 VHT       0.603200
     19 NAP         -1.5670    -6.8020    -5.1290 nb         1 VHT      -0.716000
     20 CAI         -2.6760    -7.3400    -4.6680 ca         1 VHT       0.485200
     21 CAH         -3.5300    -6.6390    -3.8310 ca         1 VHT      -0.296300
     22 CAL         -3.2130    -5.3420    -3.4700 ca         1 VHT      -0.034000
     23 CBB         -2.0300    -4.7910    -3.9720 ca         1 VHT      -0.265100
     24 CAY         -1.6230    -3.4240    -3.6280 cd         1 VHT       0.311800
     25 N           -2.3900    -2.6450    -2.8050 nu         1 VHT      -0.771000
     26 CA          -2.0420    -1.2380    -2.5940 c3         1 VHT       0.132800
     27 C           -3.1110    -0.5750    -1.7640 c          1 VHT       0.633100
     28 O           -4.0660    -1.2130    -1.3880 o          1 VHT      -0.564000
     29 OAS         -3.0020     0.7240    -1.4430 os         1 VHT      -0.413900
     30 CAA         -4.0690     1.2960    -0.6420 c3         1 VHT       0.139700
     31 H1           1.5030     0.0640     2.1360 ha         1 VHT       0.163000
     32 H2           5.2010     0.0030    -0.0030 ha         1 VHT       0.155000
     33 H3           3.9680    -0.0000    -2.1370 ha         1 VHT       0.155000
     34 H4           0.4820     0.7150    -2.4540 h1         1 VHT       0.067700
     35 H5           1.9640     0.2660    -3.3090 h1         1 VHT       0.067700
     36 H6           0.9420    -2.0870    -2.1190 hn         1 VHT       0.323500
     37 H7           0.6080    -5.5780    -7.0630 ho         1 VHT       0.412000
     38 H8          -2.9270    -8.3560    -4.9480 h4         1 VHT       0.033100
     39 H9          -4.4370    -7.1020    -3.4630 ha         1 VHT       0.149000
     40 H10         -3.8620    -4.7710    -2.8170 ha         1 VHT       0.146000
     41 H11         -3.1800    -3.0410    -2.3350 hn         1 VHT       0.466800
     42 H12         -1.0920    -1.1750    -2.0760 h1         1 VHT       0.117200
     43 H13         -1.9650    -0.7370    -3.5510 h1         1 VHT       0.117200
     44 H14         -5.0100     1.1990    -1.1710 h1         1 VHT       0.052700
     45 H15         -4.1320     0.7710     0.3040 h1         1 VHT       0.052700
     46 H16         -3.8630     2.3440    -0.4610 h1         1 VHT       0.052700
@<TRIPOS>BOND
     1    30    29 1
     2    29    27 1
     3    28    27 2
     4    27    26 1
     5     7     6 ar
     6     7     8 ar
     7    12    11 2
     8     6     4 ar
     9    26    25 1
    10    25    24 1
    11     9     8 1
    12     9    10 1
    13     8     2 ar
    14    11    10 1
    15    11    13 1
    16     4     5 1
    17     4     3 ar
    18    24    13 2
    19    24    23 1
    20    13    14 1
    21     2     3 ar
    22     2     1 1
    23    22    23 ar
    24    22    21 ar
    25    23    18 ar
    26    14    15 2
    27    14    16 1
    28    21    20 ar
    29    18    16 1
    30    18    19 ar
    31    16    17 1
    32    20    19 ar
    33     3    31 1
    34     6    32 1
    35     7    33 1
    36     9    34 1
    37     9    35 1
    38    10    36 1
    39    17    37 1
    40    20    38 1
    41    21    39 1
    42    22    40 1
    43    25    41 1
    44    26    42 1
    45    26    43 1
    46    30    44 1
    47    30    45 1
    48    30    46 1
@<TRIPOS>SUBSTRUCTURE
     1 VHT         1 TEMP              0 ****  ****    0 ROOT
