@<TRIPOS>MOLECULE
VHT
   46    48     1     0     0
SMALL
bcc


@<TRIPOS>ATOM
      1 FAG          0.0000     0.0000     0.0000 f          1 VHT      -0.125900
      2 CAW          1.3520     0.0000     0.0000 ca         1 VHT       0.138900
      3 CAM          2.0430     0.0000     1.2000 ca         1 VHT      -0.168000
      4 CAV          3.4280    -0.0000     1.1970 ca         1 VHT       0.140900
      5 FAF          4.1040    -0.0010     2.3670 f          1 VHT      -0.120900
      6 CAJ          4.1180     0.0010    -0.0020 ca         1 VHT      -0.144000
      7 CAK          3.4260     0.0010    -1.1990 ca         1 VHT      -0.025000
      8 CAX          2.0450    -0.0040    -1.1990 ca         1 VHT      -0.166300
      9 CAO          1.2910    -0.0040    -2.5040 c3         1 VHT       0.112300
     10 NAQ          0.7430    -1.3390    -2.7530 ns         1 VHT      -0.206900
     11 CAU          0.0260    -1.5770    -3.8690 c          1 VHT       0.662300
     12 OAC         -0.2440    -0.6620    -4.6240 o          1 VHT      -0.645100
     13 CAZ         -0.4270    -2.9370    -4.1740 cc         1 VHT      -0.437400
     14 CBA          0.3440    -3.7750    -5.0180 c          1 VHT       0.646700
     15 OAD          1.3850    -3.3500    -5.4850 o          1 VHT      -0.679500
     16 NBD         -0.0440    -5.0260    -5.3150 n          1 VHT       0.128200
     17 OAE          0.7700    -5.8150    -6.1650 oh         1 VHT      -0.429100
     18 CBC         -1.2110    -5.5630    -4.8180 ca         1 VHT       0.397200
     19 NAP         -1.5670    -6.8020    -5.1290 nb         1 VHT      -0.603000
     20 CAI         -2.6760    -7.3400    -4.6680 ca         1 VHT       0.463200
     21 CAH         -3.5300    -6.6390    -3.8310 ca         1 VHT      -0.261300
     22 CAL         -3.2130    -5.3420    -3.4700 ca         1 VHT      -0.014000
     23 CBB         -2.0300    -4.7910    -3.9720 ca         1 VHT      -0.257100
     24 CAY         -1.6230    -3.4240    -3.6280 cd         1 VHT       0.164800
     25 N           -2.3900    -2.6450    -2.8050 nu         1 VHT      -0.338000
     26 CA          -2.0420    -1.2380    -2.5940 c3         1 VHT       0.005800
     27 C           -3.1110    -0.5750    -1.7640 c          1 VHT       0.706100
     28 O           -4.0660    -1.2130    -1.3880 o          1 VHT      -0.602000
     29 OAS         -3.0020     0.7240    -1.4430 os         1 VHT      -0.397900
     30 CAA         -4.0690     1.2960    -0.6420 c3         1 VHT       0.270700
     31 H1           1.5030     0.0640     2.1360 ha         1 VHT       0.137000
     32 H2           5.2010     0.0030    -0.0030 ha         1 VHT       0.127000
     33 H3           3.9680    -0.0000    -2.1370 ha         1 VHT       0.122000
     34 H4           0.4820     0.7150    -2.4540 h1         1 VHT       0.037700
     35 H5           1.9640     0.2660    -3.3090 h1         1 VHT       0.037700
     36 H6           0.9420    -2.0870    -2.1190 hn         1 VHT       0.184500
     37 H7           0.6080    -5.5780    -7.0630 ho         1 VHT       0.407000
     38 H8          -2.9270    -8.3560    -4.9480 h4         1 VHT      -0.017900
     39 H9          -4.4370    -7.1020    -3.4630 ha         1 VHT       0.121000
     40 H10         -3.8620    -4.7710    -2.8170 ha         1 VHT       0.115000
     41 H11         -3.1800    -3.0410    -2.3350 hn         1 VHT       0.319800
     42 H12         -1.0920    -1.1750    -2.0760 h1         1 VHT       0.091700
     43 H13         -1.9650    -0.7370    -3.5510 h1         1 VHT       0.091700
     44 H14         -5.0100     1.1990    -1.1710 h1         1 VHT       0.004033
     45 H15         -4.1320     0.7710     0.3040 h1         1 VHT       0.004033
     46 H16         -3.8630     2.3440    -0.4610 h1         1 VHT       0.004033
@<TRIPOS>BOND
     1     1     2 1   
     2     2     3 ar  
     3     2     8 ar  
     4     3     4 ar  
     5     3    31 1   
     6     4     5 1   
     7     4     6 ar  
     8     6     7 ar  
     9     6    32 1   
    10     7     8 ar  
    11     7    33 1   
    12     8     9 1   
    13     9    10 1   
    14     9    34 1   
    15     9    35 1   
    16    10    11 1   
    17    10    36 1   
    18    11    12 2   
    19    11    13 1   
    20    13    14 1   
    21    13    24 2   
    22    14    15 2   
    23    14    16 1   
    24    16    17 1   
    25    16    18 1   
    26    17    37 1   
    27    18    19 ar  
    28    18    23 ar  
    29    19    20 ar  
    30    20    21 ar  
    31    20    38 1   
    32    21    22 ar  
    33    21    39 1   
    34    22    23 ar  
    35    22    40 1   
    36    23    24 1   
    37    24    25 1   
    38    25    26 1   
    39    25    41 1   
    40    26    27 1   
    41    26    42 1   
    42    26    43 1   
    43    27    28 2   
    44    27    29 1   
    45    29    30 1   
    46    30    44 1   
    47    30    45 1   
    48    30    46 1   
@<TRIPOS>SUBSTRUCTURE
     1 VHT         1 TEMP              0 ****  ****    0 ROOT
