@<TRIPOS>MOLECULE
VI
   33    35     1     0     0
SMALL
bcc


@<TRIPOS>ATOM
      1 O23         0.7760   -1.0150    0.5360 o         1 VI      -0.823300
      2 C18         1.2740    0.0670    0.1290 c         1 VI       0.944200
      3 O22         1.0440    1.1940    0.6550 o         1 VI      -0.823300
      4 C4          2.1370    0.0300   -1.1250 cc        1 VI      -0.076900
      5 N5          1.5620    0.0990   -2.4320 na        1 VI       0.132300
      6 C6          0.1970    0.2670   -2.7630 ca        1 VI       0.088800
      7 C11        -0.6650    1.0300   -1.9400 ca        1 VI      -0.144000
      8 C10        -1.9990    1.1970   -2.2930 ca        1 VI      -0.136500
      9 C9         -2.5100    0.6360   -3.4640 ca        1 VI      -0.186000
     10 C8         -1.6680   -0.1120   -4.2830 ca        1 VI      -0.136500
     11 C7         -0.3320   -0.3030   -3.9460 ca        1 VI      -0.144000
     12 N1          2.4970   -0.0030   -3.4000 nc        1 VI      -0.588800
     13 C3          3.5180   -0.1060   -1.3170 cd        1 VI      -0.236900
     14 C19         4.6370   -0.2280   -0.3190 c         1 VI       0.945200
     15 O21         4.9140   -1.3620    0.1610 o         1 VI      -0.843800
     16 O20         5.3160    0.8110   -0.0460 o         1 VI      -0.843800
     17 C2          3.7020   -0.1190   -2.7680 cd        1 VI       0.346800
     18 C12         4.9510   -0.2260   -3.5080 ca        1 VI      -0.060500
     19 C17         4.9870   -0.8600   -4.7610 ca        1 VI      -0.115500
     20 C16         6.1780   -0.9380   -5.4810 ca        1 VI      -0.158000
     21 C15         7.3490   -0.3880   -4.9630 ca        1 VI      -0.168000
     22 C14         7.3220    0.2370   -3.7160 ca        1 VI      -0.158000
     23 C13         6.1370    0.3220   -2.9900 ca        1 VI      -0.115500
     24 H11        -0.2800    1.4780   -1.0000 ha        1 VI       0.175000
     25 H10        -2.6560    1.7820   -1.6350 ha        1 VI       0.105500
     26 H9         -3.5640    0.7770   -3.7320 ha        1 VI       0.097000
     27 H8         -2.0600   -0.5630   -5.2060 ha        1 VI       0.105500
     28 H7          0.3090   -0.9030   -4.6090 ha        1 VI       0.175000
     29 H17         4.0710   -1.3020   -5.1770 ha        1 VI       0.173000
     30 H16         6.1920   -1.4380   -6.4590 ha        1 VI       0.102500
     31 H15         8.2870   -0.4510   -5.5300 ha        1 VI       0.092000
     32 H14         8.2440    0.6640   -3.2970 ha        1 VI       0.102500
     33 H13         6.1140    0.8000   -1.9860 ha        1 VI       0.173000
@<TRIPOS>BOND
     1    1    2 1   
     2    2    3 1   
     3    2    4 1   
     4    4    5 1   
     5    4   13 2   
     6    5    6 1   
     7    5   12 1   
     8    6    7 ar  
     9    6   11 ar  
    10    7    8 ar  
    11    7   24 1   
    12    8    9 ar  
    13    8   25 1   
    14    9   10 ar  
    15    9   26 1   
    16   10   11 ar  
    17   10   27 1   
    18   11   28 1   
    19   12   17 2   
    20   13   14 1   
    21   13   17 1   
    22   14   15 1   
    23   14   16 1   
    24   17   18 1   
    25   18   19 ar  
    26   18   23 ar  
    27   19   20 ar  
    28   19   29 1   
    29   20   21 ar  
    30   20   30 1   
    31   21   22 ar  
    32   21   31 1   
    33   22   23 ar  
    34   22   32 1   
    35   23   33 1   
@<TRIPOS>SUBSTRUCTURE
     1 VI          1 TEMP              0 ****  ****    0 ROOT
