@<TRIPOS>MOLECULE
molecule
   33    35     1     0     0
SMALL
bcc


@<TRIPOS>ATOM
      1 O23          0.0000     0.0000     0.0000 o          1 VI       -0.824800
      2 C18          1.3480     0.0000     0.0000 c          1 VI        0.907200
      3 O22          1.9550     0.0000     1.0520 o          1 VI       -0.824800
      4 C4           2.0830     0.0010    -1.2750 cc         1 VI       -0.149900
      5 N5           1.5550     0.1240    -2.5230 na         1 VI        0.214300
      6 C6           0.1930     0.2750    -2.8020 ca         1 VI        0.065800
      7 C11         -0.5680     1.1860    -2.0810 ca         1 VI       -0.075500
      8 C10         -1.9140     1.3330    -2.3590 ca         1 VI       -0.157500
      9 C9          -2.5030     0.5730    -3.3530 ca         1 VI       -0.156000
     10 C8          -1.7480    -0.3350    -4.0730 ca         1 VI       -0.157500
     11 C7          -0.4010    -0.4820    -3.8050 ca         1 VI       -0.075500
     12 N1           2.4840     0.0830    -3.4080 nc         1 VI       -0.599800
     13 C3           3.4670    -0.1200    -1.4460 cd         1 VI       -0.213900
     14 C19          4.4920    -0.2790    -0.3970 c          1 VI        0.940200
     15 O21          4.8430    -1.5110     0.0200 o          1 VI       -0.852300
     16 O20          5.0190     0.7000     0.0890 o          1 VI       -0.852300
     17 C2           3.6660    -0.0660    -2.8500 cd         1 VI        0.321800
     18 C12          4.9660    -0.1540    -3.5570 ca         1 VI       -0.037500
     19 C17          5.0690    -0.8760    -4.7450 ca         1 VI       -0.108500
     20 C16          6.2810    -0.9540    -5.3990 ca         1 VI       -0.151000
     21 C15          7.3940    -0.3190    -4.8780 ca         1 VI       -0.169000
     22 C14          7.2980     0.3980    -3.6990 ca         1 VI       -0.151000
     23 C13          6.0900     0.4890    -3.0400 ca         1 VI       -0.108500
     24 H11         -0.1080     1.7820    -1.3020 ha         1 VI        0.153500
     25 H10         -2.5080     2.0430    -1.7980 ha         1 VI        0.104000
     26 H9          -3.5580     0.6880    -3.5680 ha         1 VI        0.092000
     27 H8          -2.2120    -0.9270    -4.8530 ha         1 VI        0.104000
     28 H7           0.1900    -1.1940    -4.3690 ha         1 VI        0.153500
     29 H17          4.1980    -1.3740    -5.1550 ha         1 VI        0.157000
     30 H16          6.3620    -1.5150    -6.3230 ha         1 VI        0.102000
     31 H15          8.3440    -0.3860    -5.3930 ha         1 VI        0.092000
     32 H14          8.1720     0.8960    -3.2970 ha         1 VI        0.102000
     33 H13          6.0160     1.0510    -2.1170 ha         1 VI        0.157000
@<TRIPOS>BOND
     1     1     2 1
     2     2     3 1
     3     2     4 1
     4     4     5 1
     5     4    13 2
     6     5     6 1
     7     5    12 1
     8     6     7 ar
     9     6    11 ar
    10     7     8 ar
    11     7    24 1
    12     8     9 ar
    13     8    25 1
    14     9    10 ar
    15     9    26 1
    16    10    11 ar
    17    10    27 1
    18    11    28 1
    19    12    17 2
    20    13    14 1
    21    13    17 1
    22    14    15 1
    23    14    16 1
    24    17    18 1
    25    18    19 ar
    26    18    23 ar
    27    19    20 ar
    28    19    29 1
    29    20    21 ar
    30    20    30 1
    31    21    22 ar
    32    21    31 1
    33    22    23 ar
    34    22    32 1
    35    23    33 1
@<TRIPOS>SUBSTRUCTURE
     1 VI          1 TEMP              0 ****  ****    0 ROOT
