@<TRIPOS>MOLECULE
VIA
   63    66     1     0     0
SMALL
bcc


@<TRIPOS>ATOM
      1 C34         1.4330   -0.0290    5.2440 c3        1 VIA     -0.094100
      2 C33         2.1580    0.2890    3.9610 c3        1 VIA     -0.078400
      3 C32         3.1620   -0.7940    3.6220 c3        1 VIA     -0.102700
      4 C30         3.8410   -0.5880    2.3250 cc        1 VIA      0.339600
      5 N29         4.0660    0.6140    1.7140 nd        1 VIA     -0.479800
      6 N28         4.7240    0.4030    0.5680 na        1 VIA      0.142400
      7 C31         5.1350    1.4530   -0.3370 c3        1 VIA      0.028600
      8 C24         4.9650   -0.9570    0.3770 cd        1 VIA     -0.217900
      9 C23         5.6150   -1.7000   -0.6950 c         1 VIA      0.735100
     10 O27         6.1130   -1.2220   -1.7310 o         1 VIA     -0.641500
     11 N22         5.6510   -3.0850   -0.4650 n         1 VIA     -0.462400
     12 C21         5.0610   -3.6790    0.6660 cd        1 VIA      0.527500
     13 N26         4.4520   -3.0160    1.6470 nc        1 VIA     -0.563100
     14 C25         4.4040   -1.6470    1.5020 cc        1 VIA      0.013100
     15 C9          5.1710   -5.1580    0.7720 ca        1 VIA     -0.200900
     16 C8          5.6030   -5.7140    1.9770 ca        1 VIA      0.061000
     17 C7          5.6990   -7.0990    2.1520 ca        1 VIA     -0.417500
     18 C6          5.3550   -7.9340    1.0820 ca        1 VIA      0.035000
     19 C5          4.9210   -7.4140   -0.1290 ca        1 VIA     -0.240000
     20 C4          4.8230   -6.0220   -0.2930 ca        1 VIA      0.212100
     21 O3          4.4120   -5.4210   -1.4550 os        1 VIA     -0.334900
     22 C2          3.9520   -6.2890   -2.5080 c3        1 VIA      0.130400
     23 C1          3.4830   -5.3730   -3.6140 c3        1 VIA     -0.105100
     24 S10         6.2570   -7.7490    3.6100 sy        1 VIA      1.514200
     25 O11         6.6480   -9.0860    3.3640 o         1 VIA     -0.653300
     26 O12         7.2420   -6.8800    4.1250 o         1 VIA     -0.653300
     27 N14         4.9460   -7.7250    4.5660 n3        1 VIA     -0.818500
     28 C19         4.0530   -8.8470    4.7080 c3        1 VIA      0.222800
     29 C18         3.7400   -9.1970    6.1780 c3        1 VIA      0.156800
     30 N17         3.3370   -8.0380    6.9630 n3        1 VIA     -0.730600
     31 C20         3.0760   -8.3720    8.3450 c3        1 VIA      0.156100
     32 C16         4.2620   -6.9220    6.8270 c3        1 VIA      0.156800
     33 C15         4.5750   -6.5770    5.3550 c3        1 VIA      0.222800
     34 H341        0.7030    0.7800    5.4850 hc        1 VIA      0.033033
     35 H342        2.1540   -0.1190    6.0930 hc        1 VIA      0.033033
     36 H343        0.8760   -0.9930    5.1550 hc        1 VIA      0.033033
     37 H331        2.6830    1.2760    4.0600 hc        1 VIA      0.049700
     38 H332        1.4180    0.3910    3.1240 hc        1 VIA      0.049700
     39 H321        3.9450   -0.8460    4.4280 hc        1 VIA      0.062200
     40 H322        2.6450   -1.7920    3.5930 hc        1 VIA      0.062200
     41 H311        5.6470    0.9800   -1.2190 h1        1 VIA      0.072700
     42 H312        5.8430    2.1500    0.1870 h1        1 VIA      0.072700
     43 H313        4.2370    2.0320   -0.6800 h1        1 VIA      0.072700
     44 H22         6.0080   -3.6760   -1.1860 hn        1 VIA      0.346500
     45 H8          5.8890   -5.0470    2.8120 ha        1 VIA      0.169000
     46 H6          5.4460   -9.0300    1.2030 ha        1 VIA      0.162000
     47 H5          4.6600   -8.0960   -0.9500 ha        1 VIA      0.150000
     48 H21         3.1150   -6.9270   -2.1220 h1        1 VIA      0.047200
     49 H22A        4.8040   -6.9360   -2.8450 h1        1 VIA      0.047200
     50 H11         2.6550   -4.7170   -3.2550 hc        1 VIA      0.056367
     51 H12         3.1170   -5.9940   -4.4660 hc        1 VIA      0.056367
     52 H13         4.3190   -4.7220   -3.9670 hc        1 VIA      0.056367
     53 H191        3.0830   -8.6170    4.1790 h1        1 VIA      0.059700
     54 H192        4.5190   -9.7560    4.2290 h1        1 VIA      0.059700
     55 H181        4.6380   -9.7150    6.6270 h1        1 VIA      0.041700
     56 H182        2.8830   -9.9260    6.1800 h1        1 VIA      0.041700
     57 H201        2.2920   -9.1730    8.3800 h1        1 VIA      0.034367
     58 H202        2.6860   -7.4600    8.8670 h1        1 VIA      0.034367
     59 H203        3.9860   -8.7380    8.8960 h1        1 VIA      0.034367
     60 H161        5.2340   -7.1150    7.3690 h1        1 VIA      0.041700
     61 H162        3.7790   -6.0180    7.2920 h1        1 VIA      0.041700
     62 H151        5.4230   -5.8330    5.3480 h1        1 VIA      0.059700
     63 H152        3.6650   -6.0910    4.8980 h1        1 VIA      0.059700
@<TRIPOS>BOND
     1    1    2 1   
     2    1   34 1   
     3    1   35 1   
     4    1   36 1   
     5    2    3 1   
     6    2   37 1   
     7    2   38 1   
     8    3    4 1   
     9    3   39 1   
    10    3   40 1   
    11    4    5 2   
    12    4   14 1   
    13    5    6 1   
    14    6    7 1   
    15    6    8 1   
    16    7   41 1   
    17    7   42 1   
    18    7   43 1   
    19    8    9 1   
    20    8   14 2   
    21    9   10 2   
    22    9   11 1   
    23   11   12 1   
    24   11   44 1   
    25   12   13 2   
    26   12   15 1   
    27   13   14 1   
    28   15   16 ar  
    29   15   20 ar  
    30   16   17 ar  
    31   16   45 1   
    32   17   18 ar  
    33   17   24 1   
    34   18   19 ar  
    35   18   46 1   
    36   19   20 ar  
    37   19   47 1   
    38   20   21 1   
    39   21   22 1   
    40   22   23 1   
    41   22   48 1   
    42   22   49 1   
    43   23   50 1   
    44   23   51 1   
    45   23   52 1   
    46   24   25 2   
    47   24   26 2   
    48   24   27 1   
    49   27   28 1   
    50   27   33 1   
    51   28   29 1   
    52   28   53 1   
    53   28   54 1   
    54   29   30 1   
    55   29   55 1   
    56   29   56 1   
    57   30   31 1   
    58   30   32 1   
    59   31   57 1   
    60   31   58 1   
    61   31   59 1   
    62   32   33 1   
    63   32   60 1   
    64   32   61 1   
    65   33   62 1   
    66   33   63 1   
@<TRIPOS>SUBSTRUCTURE
     1 VIA         1 TEMP              0 ****  ****    0 ROOT
