@<TRIPOS>MOLECULE
molecule
   35    36     1     0     0
SMALL
bcc


@<TRIPOS>ATOM
      1 CM2          0.0000     0.0000     0.0000 c3         1 VIB      -0.133400
      2 O1           7.1160    -5.2150    -6.1270 oh         1 VIB      -0.594800
      3 C7           7.2180    -4.2370    -5.0900 c3         1 VIB       0.147400
      4 C6           6.0200    -4.3660    -4.1470 c3         1 VIB      -0.003100
      5 C2           6.5440    -1.8390    -0.9080 cc         1 VIB       0.001600
      6 S1           6.9150    -3.4470    -1.4520 ss         1 VIB       0.072200
      7 C5           6.1290    -3.3350    -3.0540 cc         1 VIB       0.023600
      8 C4           5.6510    -2.0650    -3.0090 cd         1 VIB      -0.111600
      9 N3           5.8800    -1.3470    -1.9290 na         1 VIB       0.057900
     10 C7A          5.3790     0.0280    -1.8630 c3         1 VIB       0.065600
     11 C4A          3.6740     0.0000     0.0000 ca         1 VIB       0.752200
     12 N3A          2.4040     0.0000     0.3950 nb         1 VIB      -0.753000
     13 C2A          1.4260     0.0070    -0.4880 ca         1 VIB       0.751300
     14 N1A          1.6590     0.0260    -1.7840 nb         1 VIB      -0.737000
     15 C6A          2.8980     0.0330    -2.2550 ca         1 VIB       0.504200
     16 C5A          3.9560     0.0200    -1.3670 ca         1 VIB      -0.461900
     17 HM21        -0.2620    -0.9960     0.3350 hc         1 VIB       0.077033
     18 HM22        -0.1030     0.6970     0.8230 hc         1 VIB       0.077033
     19 HM23        -0.6590     0.2950    -0.8070 hc         1 VIB       0.077033
     20 H4A1         5.3610     0.7390     0.9560 hn         1 VIB       0.449300
     21 H4A2         4.7650    -0.7580     1.5940 hn         1 VIB       0.449300
     22 HM41         3.8220    -1.5620    -3.9760 hc         1 VIB       0.081033
     23 HM42         5.1560    -0.4460    -4.3000 hc         1 VIB       0.081033
     24 HM43         5.1270    -2.0370    -5.0720 hc         1 VIB       0.081033
     25 HO1          7.8520    -5.1340    -6.7100 ho         1 VIB       0.428000
     26 HC71         7.2280    -3.2460    -5.5270 h1         1 VIB       0.028200
     27 HC72         8.1340    -4.3960    -4.5340 h1         1 VIB       0.028200
     28 HC61         5.1040    -4.2080    -4.7030 hc         1 VIB       0.097700
     29 HC62         6.0100    -5.3570    -3.7090 hc         1 VIB       0.097700
     30 HC2          6.7980    -1.3630     0.0310 h5         1 VIB       0.256000
     31 H7A1         5.9950     0.6030    -1.1820 h1         1 VIB       0.097200
     32 H7A2         5.4160     0.4740    -2.8490 h1         1 VIB       0.097200
     33 H6AC         3.0790     0.0480    -3.3230 h4         1 VIB       0.032100
     34 N4A          4.7010    -0.0120     0.9310 nv         1 VIB      -1.068500
     35 CM4          4.8850    -1.4870    -4.1710 c3         1 VIB      -0.045800
@<TRIPOS>BOND
     1     1    13 1
     2     1    17 1
     3     1    18 1
     4     1    19 1
     5    34    11 1
     6    34    20 1
     7    34    21 1
     8    35     8 1
     9    35    22 1
    10    35    23 1
    11    35    24 1
    12     2     3 1
    13     2    25 1
    14     3     4 1
    15     3    26 1
    16     3    27 1
    17     4     7 1
    18     4    28 1
    19     4    29 1
    20     5     6 1
    21     5     9 2
    22     5    30 1
    23     6     7 1
    24     7     8 2
    25     8     9 1
    26     9    10 1
    27    10    16 1
    28    10    31 1
    29    10    32 1
    30    11    12 ar
    31    11    16 ar
    32    12    13 ar
    33    13    14 ar
    34    14    15 ar
    35    15    16 ar
    36    15    33 1
@<TRIPOS>SUBSTRUCTURE
     1 VIB         1 TEMP              0 ****  ****    0 ROOT
