@<TRIPOS>MOLECULE
VIF
   77    74     1     0     0
SMALL
bcc


@<TRIPOS>ATOM
      1 C10         0.9140   -0.7490   -0.4280 c1        1 VIF      0.044000
      2 C13         2.7190   -8.8590    3.9240 c3        1 VIF     -0.030000
      3 C15         3.3310   -6.7800    5.1360 c2        1 VIF      0.289000
      4 C17        -1.0170   -2.2250   -0.7590 c3        1 VIF     -0.099000
      5 C20         2.1040   -0.4980    0.3320 c2        1 VIF     -0.112000
      6 C21         2.0920   -0.6020    1.6750 c2        1 VIF     -0.257000
      7 C22         3.2690   -0.3650    2.5680 c3        1 VIF      0.089000
      8 C24         3.2770   -0.0470   -0.4630 c3        1 VIF     -0.186000
      9 C26        -2.5210   -6.6760    4.3590 c2        1 VIF     -0.314000
     10 N           4.0230   -4.5970    4.1330 n2        1 VIF     -0.241000
     11 C          -0.0150   -5.4880   -3.4410 c2        1 VIF     -0.157000
     12 C01        -1.9840   -4.1760    1.5640 c2        1 VIF     -0.441000
     13 N01         3.0820   -7.4030    3.7740 n4        1 VIF     -0.066000
     14 O01        -0.1970   -7.6050    4.5450 o         1 VIF     -0.257000
     15 C02        -1.7360   -4.8260    2.8660 c3        1 VIF     -0.067000
     16 N02        -1.4850   -3.6330   -0.7940 n4        1 VIF     -0.103000
     17 C03        -1.1310   -4.3790    0.5220 c2        1 VIF      0.223000
     18 O03         2.7700   -7.2730    6.0980 o         1 VIF     -0.141000
     19 C04         3.6450   -2.1030    4.3310 c2        1 VIF     -0.164000
     20 O04         2.9170    0.4250    3.6970 oh        1 VIF     -0.326000
     21 C05        -2.8890   -5.7310    3.2740 c3        1 VIF     -0.088000
     22 O05         4.1160   -3.6080    6.2150 os        1 VIF     -0.119000
     23 C06        -1.3170   -7.1780    4.4660 c1        1 VIF      0.249000
     24 C07         5.8600   -4.0150   -0.3010 c3        1 VIF     -0.052000
     25 C08         2.5810   -5.9150    1.7850 c2        1 VIF      0.194000
     26 C09         2.0450   -6.6400    3.0110 c3        1 VIF     -0.199000
     27 C11         1.6890  -10.0920    1.9960 c1        1 VIF      0.344000
     28 C12         2.7250   -9.5750    2.6320 c2        1 VIF     -0.574000
     29 C14         3.7240   -1.7130    3.0500 c2        1 VIF     -0.037000
     30 C16        -0.8290   -6.4810   -2.7110 c3        1 VIF     -0.218000
     31 C18         0.5040   -2.1280   -0.6610 c3        1 VIF     -0.239000
     32 C19         0.9440   -4.7560   -2.8750 c2        1 VIF     -0.268000
     33 C23         4.3040   -5.6290    5.1420 c3        1 VIF     -0.236000
     34 C25         4.3120   -4.8600    6.5220 c1        1 VIF      0.172000
     35 C27         3.9350   -3.4510    4.7530 c2        1 VIF      0.135000
     36 F           5.1440   -2.9330    0.1660 f         1 VIF     -0.198000
     37 H1          0.8830   -2.8490    0.1240 hc        1 VIF      0.141500
     38 H2          3.4790   -9.3180    4.6230 hx        1 VIF      0.159000
     39 H3         -1.4800   -1.7380    0.1480 hx        1 VIF      0.135000
     40 H4         -1.3750   -1.6880   -1.6820 hx        1 VIF      0.135000
     41 H5          1.1710   -0.8900    2.2120 ha        1 VIF      0.142000
     42 H6          4.1170    0.1370    2.0150 h1        1 VIF      0.111000
     43 H7          3.6360    0.9460   -0.0930 hc        1 VIF      0.104333
     44 H8          4.1090   -0.7910   -0.3630 hc        1 VIF      0.104333
     45 H9          3.0190    0.0600   -1.5460 hc        1 VIF      0.104333
     46 H10        -3.2410   -6.3210    2.3840 hc        1 VIF      0.100500
     47 H11        -0.7830   -5.4240    2.8190 hc        1 VIF      0.064000
     48 H12        -3.3080   -6.9760    5.0680 ha        1 VIF      0.193000
     49 H13        -0.2380   -5.4000   -4.5190 ha        1 VIF      0.130000
     50 H14        -2.8720   -3.5390    1.4960 ha        1 VIF      0.131000
     51 H16        -1.5920   -4.0360    3.6530 hc        1 VIF      0.064000
     52 H18        -1.0240   -4.1340   -1.5650 hn        1 VIF      0.231000
     53 H19         6.9150   -3.9500    0.0700 h1        1 VIF      0.084000
     54 H20         3.3300   -1.4150    5.1400 ha        1 VIF      0.199000
     55 H21         2.5220    1.2380    3.3590 ho        1 VIF      0.224000
     56 H22        -3.7530   -5.1030    3.6190 hc        1 VIF      0.100500
     57 H23         1.5540   -4.0460   -3.4490 ha        1 VIF      0.120000
     58 H24         5.8570   -4.0060   -1.4210 h1        1 VIF      0.084000
     59 H25         1.8240   -5.2600    1.2930 h4        1 VIF      0.202000
     60 H26         1.2420   -7.3570    2.6580 hx        1 VIF      0.170500
     61 H27         1.5430   -5.8980    3.6960 hx        1 VIF      0.170500
     62 H28         3.7240   -9.7620    2.1750 ha        1 VIF      0.213000
     63 H29         4.0970   -2.3710    2.2420 ha        1 VIF      0.159000
     64 H30         5.3840   -4.9600    0.0720 h1        1 VIF      0.084000
     65 H31        -1.9190   -6.3000   -2.8890 hc        1 VIF      0.093333
     66 H32        -0.6330   -6.4510   -1.6080 hc        1 VIF      0.093333
     67 H33        -0.5900   -7.5100   -3.0810 hc        1 VIF      0.093333
     68 H34         0.9810   -2.4410   -1.6400 hc        1 VIF      0.141500
     69 H35        -1.2940   -1.8760    2.5300 ha        1 VIF      0.000500
     70 H36        -1.0750   -1.2420    2.6300 ha        1 VIF      0.000500
     71 H37         1.2010   -4.8460   -1.8080 ha        1 VIF      0.120000
     72 H38         5.3480   -6.0410    4.9870 h1        1 VIF      0.192000
     73 H39         3.9610   -7.3410    3.2310 hn        1 VIF      0.262000
     74 H15         1.7040   -8.9020    4.4240 hx        1 VIF      0.159000
     75 O          -0.0720   -5.0540    0.3770 o         1 VIF     -0.511000
     76 O02         3.7310   -6.0860    1.3860 o         1 VIF     -0.288000
     77 H022       -2.4930   -3.6470   -0.9320 hn        1 VIF      0.231000
@<TRIPOS>BOND
     1    1    5 1   
     2    1   31 1   
     3    2   13 1   
     4    2   28 1   
     5    2   38 1   
     6    2   74 1   
     7    3   13 1   
     8    3   18 1   
     9    3   33 1   
    10    4   16 1   
    11    4   31 1   
    12    4   39 1   
    13    4   40 1   
    14    5    6 1   
    15    5    8 1   
    16    6    7 1   
    17    6   41 1   
    18    7   20 1   
    19    7   29 1   
    20    7   42 1   
    21    8   43 1   
    22    8   44 1   
    23    8   45 1   
    24    9   21 1   
    25    9   23 1   
    26    9   48 1   
    27   10   33 1   
    28   10   35 1   
    29   11   30 1   
    30   11   32 1   
    31   11   49 1   
    32   12   15 1   
    33   12   17 1   
    34   12   50 1   
    35   13   26 1   
    36   13   73 1   
    37   14   23 1   
    38   15   21 1   
    39   15   47 1   
    40   15   51 1   
    41   16   17 1   
    42   16   52 1   
    43   16   77 1   
    44   17   75 1   
    45   19   29 1   
    46   19   35 1   
    47   19   54 1   
    48   20   55 1   
    49   21   46 1   
    50   21   56 1   
    51   22   34 1   
    52   22   35 1   
    53   24   36 1   
    54   24   53 1   
    55   24   58 1   
    56   24   64 1   
    57   25   26 1   
    58   25   59 1   
    59   25   76 1   
    60   26   60 1   
    61   26   61 1   
    62   27   28 1   
    63   28   62 1   
    64   29   63 1   
    65   30   65 1   
    66   30   66 1   
    67   30   67 1   
    68   31   37 1   
    69   31   68 1   
    70   32   57 1   
    71   32   71 1   
    72   33   34 1   
    73   33   72 1   
    74   69   70 1   
@<TRIPOS>SUBSTRUCTURE
     1 VIF         1 TEMP              0 ****  ****    0 ROOT
