@<TRIPOS>MOLECULE
VIG
   21    20     1     0     0
SMALL
bcc


@<TRIPOS>ATOM
      1 C1'        -0.0920   -0.0670    0.0610 c         1 VIG      0.910600
      2 O1'         0.8950    0.6650    0.3590 o         1 VIG     -0.849800
      3 O2'        -0.5070   -1.0220    0.7790 o         1 VIG     -0.849800
      4 C1         -0.8110    0.2170   -1.2730 c3        1 VIG     -0.202400
      5 C2         -2.3080    0.1690   -1.1090 c3        1 VIG     -0.101400
      6 C3         -3.0550    0.0870   -2.4510 c3        1 VIG      0.148500
      7 C4         -4.5610    0.0140   -2.1590 c3        1 VIG     -0.073400
      8 C5         -5.3720   -0.3330   -3.3790 c3        1 VIG     -0.083100
      9 N3         -2.7300    1.1460   -3.3960 n3        1 VIG     -0.903800
     10 H1C1       -0.4780   -0.5580   -2.0090 hc        1 VIG      0.019200
     11 H1C2       -0.4820    1.2180   -1.6520 hc        1 VIG      0.019200
     12 H2C1       -2.5660   -0.7340   -0.4920 hc        1 VIG      0.049700
     13 H2C2       -2.6560    1.0710   -0.5420 hc        1 VIG      0.049700
     14 H3         -2.7540   -0.8820   -2.9530 h1        1 VIG      0.049700
     15 H4C1       -4.7170   -0.7690   -1.3700 hc        1 VIG      0.034700
     16 H4C2       -4.9130    0.9890   -1.7320 hc        1 VIG      0.034700
     17 H5C1       -5.2870    0.4650   -4.1550 hc        1 VIG      0.024367
     18 H5C2       -5.0170   -1.2930   -3.8260 hc        1 VIG      0.024367
     19 H5C3       -6.4500   -0.4480   -3.1080 hc        1 VIG      0.024367
     20 H3N1       -2.9740    2.0350   -3.0000 hn        1 VIG      0.336800
     21 H3N2       -1.7380    1.1440   -3.5510 hn        1 VIG      0.336800
@<TRIPOS>BOND
     1    1    2 1   
     2    1    3 1   
     3    1    4 1   
     4    4    5 1   
     5    4   10 1   
     6    4   11 1   
     7    5    6 1   
     8    5   12 1   
     9    5   13 1   
    10    6    7 1   
    11    6    9 1   
    12    6   14 1   
    13    7    8 1   
    14    7   15 1   
    15    7   16 1   
    16    8   17 1   
    17    8   18 1   
    18    8   19 1   
    19    9   20 1   
    20    9   21 1   
@<TRIPOS>SUBSTRUCTURE
     1 VIG         1 TEMP              0 ****  ****    0 ROOT
