@<TRIPOS>MOLECULE
VII
   33    35     1     0     0
SMALL
bcc


@<TRIPOS>ATOM
      1 C17         0.0370    0.3690    0.0620 ca        1 VII     -0.128000
      2 C16         1.4110    0.1980    0.1950 ca        1 VII     -0.150500
      3 C15         1.9530   -0.3580    1.3550 ca        1 VII     -0.178000
      4 C14         1.1050   -0.7450    2.3910 ca        1 VII     -0.150500
      5 C13        -0.2720   -0.5740    2.2720 ca        1 VII     -0.128000
      6 C12        -0.8260   -0.0120    1.1070 ca        1 VII     -0.057500
      7 C10        -2.2520    0.1600    0.9870 cc        1 VII      0.228200
      8 O11        -3.0140   -0.5570    1.9310 os        1 VII     -0.419800
      9 C9         -3.0870    0.8900    0.1430 cd        1 VII     -0.134900
     10 C18        -2.5920    1.8080   -0.9500 c         1 VII      0.935200
     11 O22        -2.1390    1.2850   -2.0130 o         1 VII     -0.834800
     12 O23        -2.5600    3.0500   -0.7300 o         1 VII     -0.834800
     13 C8         -4.4490    0.6140    0.5640 cd        1 VII     -0.134900
     14 C19        -5.7510    1.0960   -0.0310 c         1 VII      0.935200
     15 O20        -6.4100    1.9760    0.6020 o         1 VII     -0.834800
     16 O21        -6.1790    0.5430   -1.0810 o         1 VII     -0.834800
     17 C7         -4.3620   -0.2570    1.6490 cc        1 VII      0.228200
     18 C1         -5.3160   -0.9030    2.5150 ca        1 VII     -0.057500
     19 C6         -4.9250   -1.9820    3.3280 ca        1 VII     -0.128000
     20 C5         -5.8430   -2.6070    4.1670 ca        1 VII     -0.150500
     21 C4         -7.1660   -2.1700    4.2120 ca        1 VII     -0.178000
     22 C3         -7.5620   -1.0980    3.4100 ca        1 VII     -0.150500
     23 C2         -6.6520   -0.4630    2.5700 ca        1 VII     -0.128000
     24 H17        -0.3980    0.8030   -0.8630 ha        1 VII      0.172500
     25 H16         2.0750    0.5040   -0.6260 ha        1 VII      0.102500
     26 H15         3.0380   -0.4900    1.4500 ha        1 VII      0.094000
     27 H14         1.5220   -1.1840    3.3080 ha        1 VII      0.102500
     28 H13        -0.9410   -0.8770    3.0900 ha        1 VII      0.172500
     29 H6         -3.8810   -2.3280    3.2910 ha        1 VII      0.172500
     30 H5         -5.5220   -3.4500    4.7950 ha        1 VII      0.102500
     31 H4         -7.8900   -2.6640    4.8710 ha        1 VII      0.094000
     32 H3         -8.6030   -0.7480    3.4400 ha        1 VII      0.102500
     33 H2         -6.9620    0.3960    1.9380 ha        1 VII      0.172500
@<TRIPOS>BOND
     1    1    2 ar  
     2    1    6 ar  
     3    1   24 1   
     4    2    3 ar  
     5    2   25 1   
     6    3    4 ar  
     7    3   26 1   
     8    4    5 ar  
     9    4   27 1   
    10    5    6 ar  
    11    5   28 1   
    12    6    7 1   
    13    7    8 1   
    14    7    9 2   
    15    8   17 1   
    16    9   10 1   
    17    9   13 1   
    18   10   11 1   
    19   10   12 1   
    20   13   14 1   
    21   13   17 2   
    22   14   15 1   
    23   14   16 1   
    24   17   18 1   
    25   18   19 ar  
    26   18   23 ar  
    27   19   20 ar  
    28   19   29 1   
    29   20   21 ar  
    30   20   30 1   
    31   21   22 ar  
    32   21   31 1   
    33   22   23 ar  
    34   22   32 1   
    35   23   33 1   
@<TRIPOS>SUBSTRUCTURE
     1 VII         1 TEMP              0 ****  ****    0 ROOT
