@<TRIPOS>MOLECULE
VIN
   56    61     1     0     0
SMALL
bcc


@<TRIPOS>ATOM
      1 C1           0.0000     0.0000     0.0000 ca         1 VIN      -0.143200
      2 C2           1.4200     0.0000     0.0000 cp         1 VIN      -0.019000
      3 C3          -0.6900     0.0030     1.1970 ca         1 VIN      -0.094300
      4 N1          -0.4360     0.0030    -1.3160 na         1 VIN       0.375700
      5 C4           2.1130     0.0000     1.2130 ca         1 VIN      -0.179900
      6 C5           1.8250     0.0050    -1.4030 cp         1 VIN      -0.102000
      7 C6           0.0050    -0.0050     2.4160 ca         1 VIN       0.115000
      8 C7          -2.1970     0.0270     1.1960 c3         1 VIN      -0.004100
      9 C8           0.6360     0.0070    -2.1700 ca         1 VIN      -0.148200
     10 C9          -1.8400     0.0020    -1.7340 c3         1 VIN      -0.070700
     11 C10          1.3960    -0.0060     2.4280 ca         1 VIN      -0.243600
     12 C11          3.5330     0.0040     1.5890 cc         1 VIN       0.579800
     13 C12          3.0850     0.0100    -2.0060 ca         1 VIN      -0.028000
     14 C13         -0.7640    -0.0460     3.6790 ca         1 VIN      -0.105000
     15 C14         -2.7510    -0.8110     2.3430 c3         1 VIN       0.038900
     16 C15          0.6940     0.0140    -3.5620 ca         1 VIN      -0.129000
     17 C16         -2.3650    -1.4350    -1.7550 c3         1 VIN       0.195400
     18 C17          2.4300    -0.0020     3.4870 c          1 VIN       0.753100
     19 N2           3.6370     0.0020     2.8920 nd         1 VIN      -0.586100
     20 C18          3.1130     0.0160    -3.3910 ca         1 VIN      -0.139000
     21 C19         -2.1090    -0.4200     3.6480 ca         1 VIN      -0.032300
     22 C20         -0.1590     0.2880     4.8890 ca         1 VIN      -0.110000
     23 C21          1.9530     0.0180    -4.1430 ca         1 VIN      -0.060000
     24 O1          -3.7340    -1.4370    -2.1620 oh         1 VIN      -0.588800
     25 O2           2.2250    -0.0030     4.6850 o          1 VIN      -0.504100
     26 C22         -2.8410    -0.4380     4.8140 ca         1 VIN      -0.157000
     27 C23         -0.8970     0.2600     6.0540 ca         1 VIN      -0.215000
     28 C24         -2.2380    -0.0990     6.0190 ca         1 VIN       0.166100
     29 O3          -2.9630    -0.1180     7.1680 os         1 VIN      -0.303900
     30 C25         -2.2550     0.1240     8.3860 c3         1 VIN       0.162100
     31 C26         -2.1450     1.6330     8.6190 c3         1 VIN      -0.017600
     32 C27         -3.0110    -0.5180     9.5500 c3         1 VIN      -0.017600
     33 H7          -2.5360     1.0500     1.3070 hc         1 VIN       0.038700
     34 H7A         -2.5580    -0.3740     0.2570 hc         1 VIN       0.038700
     35 H9          -1.9230     0.4310    -2.7250 h1         1 VIN       0.053200
     36 H9A         -2.4250     0.5890    -1.0360 h1         1 VIN       0.053200
     37 H11          4.2510     0.5500     0.9890 h4         1 VIN       0.001800
     38 H12          3.9950     0.0080    -1.4190 ha         1 VIN       0.108000
     39 H14         -2.5500    -1.8580     2.1490 hc         1 VIN       0.022700
     40 H14A        -3.8210    -0.6550     2.4130 hc         1 VIN       0.022700
     41 H15         -0.2060     0.0160    -4.1650 ha         1 VIN       0.114000
     42 H16         -1.7800    -2.0230    -2.4530 h1         1 VIN       0.001700
     43 H16A        -2.2820    -1.8650    -0.7640 h1         1 VIN       0.001700
     44 H18          4.0700     0.0190    -3.8980 ha         1 VIN       0.105000
     45 H20          0.8870     0.5690     4.9150 ha         1 VIN       0.202000
     46 H21          2.0300     0.0230    -5.2240 ha         1 VIN       0.100000
     47 HO1         -3.9740    -2.3000    -2.4570 ho         1 VIN       0.399000
     48 H22         -3.8870    -0.7170     4.7920 ha         1 VIN       0.118000
     49 H23         -0.4310     0.5240     6.9960 ha         1 VIN       0.128000
     50 H25         -1.2630    -0.3050     8.3190 h1         1 VIN       0.024700
     51 H26         -2.8770     2.1470     8.0090 hc         1 VIN       0.013367
     52 H26A        -2.3290     1.8510     9.6650 hc         1 VIN       0.013367
     53 H26B        -1.1510     1.9680     8.3500 hc         1 VIN       0.013367
     54 H27         -3.9850    -0.0530     9.6490 hc         1 VIN       0.013367
     55 H27A        -2.4500    -0.3780    10.4660 hc         1 VIN       0.013367
     56 H27B        -3.1350    -1.5770     9.3610 hc         1 VIN       0.013367
@<TRIPOS>BOND
     1     1     2 ar  
     2     1     3 ar  
     3     1     4 1   
     4     2     5 ar  
     5     2     6 1   
     6     3     7 ar  
     7     3     8 1   
     8     4     9 1   
     9     4    10 1   
    10     5    11 ar  
    11     5    12 1   
    12     6     9 ar  
    13     6    13 ar  
    14     7    11 ar  
    15     7    14 1   
    16     8    15 1   
    17     8    33 1   
    18     8    34 1   
    19     9    16 ar  
    20    10    17 1   
    21    10    35 1   
    22    10    36 1   
    23    11    18 1   
    24    12    19 2   
    25    12    37 1   
    26    13    20 ar  
    27    13    38 1   
    28    14    21 ar  
    29    14    22 ar  
    30    15    21 1   
    31    15    39 1   
    32    15    40 1   
    33    16    23 ar  
    34    16    41 1   
    35    17    24 1   
    36    17    42 1   
    37    17    43 1   
    38    18    19 1   
    39    18    25 2   
    40    20    23 ar  
    41    20    44 1   
    42    21    26 ar  
    43    22    27 ar  
    44    22    45 1   
    45    23    46 1   
    46    24    47 1   
    47    26    28 ar  
    48    26    48 1   
    49    27    28 ar  
    50    27    49 1   
    51    28    29 1   
    52    29    30 1   
    53    30    31 1   
    54    30    32 1   
    55    30    50 1   
    56    31    51 1   
    57    31    52 1   
    58    31    53 1   
    59    32    54 1   
    60    32    55 1   
    61    32    56 1   
@<TRIPOS>SUBSTRUCTURE
     1 VIN         1 TEMP              0 ****  ****    0 ROOT
