@<TRIPOS>MOLECULE
VIO
   34    33     1     0     0
SMALL
bcc


@<TRIPOS>ATOM
      1 N            0.0000     0.0000     0.0000 nz         1 VIO       0.082400
      2 CA           1.4690     0.0000     0.0000 c3         1 VIO      -0.203500
      3 C            1.9710     0.0000     1.4210 c          1 VIO       0.946600
      4 O            3.2260    -0.3970     1.6900 o          1 VIO      -0.795800
      5 OXT          1.2450     0.3570     2.3180 o          1 VIO      -0.795800
      6 CB           1.9790     1.2510    -0.7200 c3         1 VIO      -0.013400
      7 CG           1.5740     1.1900    -2.1950 c3         1 VIO      -0.050400
      8 CD           2.0830     2.4400    -2.9150 c3         1 VIO      -0.054700
      9 NE           1.6960     2.3820    -4.3260 nu         1 VIO       0.064900
     10 CZ           2.0440     3.4000    -5.1750 c2         1 VIO       0.061800
     11 CH1          1.6470     3.3400    -6.6270 c3         1 VIO      -0.085700
     12 NH2          2.7160     4.4110    -4.7290 nv         1 VIO       0.190800
     13 C1           2.7440     2.6380    -7.4290 c3         1 VIO      -0.020400
     14 C2           2.3400     2.5780    -8.9030 c3         1 VIO       0.012900
     15 H           -0.3340    -0.3180    -0.8880 hn         1 VIO       0.213133
     16 HN2         -0.3340     0.9280     0.1680 hn         1 VIO       0.213133
     17 HA           1.8310    -0.8840    -0.5110 hx         1 VIO       0.091700
     18 HB1          1.5470     2.1320    -0.2630 hc         1 VIO       0.060200
     19 HB2          3.0590     1.2970    -0.6440 hc         1 VIO       0.060200
     20 HG1          0.4940     1.1440    -2.2720 hc         1 VIO       0.020700
     21 HG2          2.0060     0.3080    -2.6530 hc         1 VIO       0.020700
     22 HD1          3.1630     2.4870    -2.8380 h1         1 VIO       0.044200
     23 HD2          1.6510     3.3220    -2.4570 h1         1 VIO       0.044200
     24 HE           1.1590     1.6100    -4.6660 hn         1 VIO       0.176700
     25 HH11         1.5100     4.3460    -7.0060 hc         1 VIO       0.057200
     26 HH12         0.7190     2.7890    -6.7250 hc         1 VIO       0.057200
     27 HH21         2.9800     4.4510    -3.7650 hn         1 VIO       0.144200
     28 HH22         2.9700     5.1550    -5.3490 hn         1 VIO       0.144200
     29 H11          3.6720     3.1900    -7.3310 hc         1 VIO       0.021200
     30 H12          2.8810     1.6330    -7.0500 hc         1 VIO       0.021200
     31 H21          1.4430     1.9800    -9.0080 hc         1 VIO       0.019367
     32 H22          2.1500     3.5800    -9.2670 hc         1 VIO       0.019367
     33 H23          3.1420     2.1310    -9.4790 hc         1 VIO       0.019367
     34 HN3         -0.3340    -0.6060     0.7230 hn         1 VIO       0.213133
@<TRIPOS>BOND
     1     1     2 1   
     2     1    15 1   
     3     1    16 1   
     4     1    34 1   
     5     2     3 1   
     6     2     6 1   
     7     2    17 1   
     8     3     4 1   
     9     3     5 1   
    10     6     7 1   
    11     6    18 1   
    12     6    19 1   
    13     7     8 1   
    14     7    20 1   
    15     7    21 1   
    16     8     9 1   
    17     8    22 1   
    18     8    23 1   
    19     9    10 2   
    20     9    24 1   
    21    10    11 1   
    22    10    12 1   
    23    11    13 1   
    24    11    25 1   
    25    11    26 1   
    26    12    27 1   
    27    12    28 1   
    28    13    14 1   
    29    13    29 1   
    30    13    30 1   
    31    14    31 1   
    32    14    32 1   
    33    14    33 1   
@<TRIPOS>SUBSTRUCTURE
     1 VIO         1 TEMP              0 ****  ****    0 ROOT
