@<TRIPOS>MOLECULE
molecule
   46    47     1     0     0
SMALL
bcc


@<TRIPOS>ATOM
      1 O2           0.0000     0.0000     0.0000 o          1 VIQ      -0.645800
      2 S            1.4210     0.0000     0.0000 sy         1 VIQ       1.434200
      3 O3           2.1980     0.0000     1.1900 o          1 VIQ      -0.645800
      4 N1           1.8880    -1.3340    -0.8630 nu         1 VIQ      -0.746500
      5 C1           1.3120    -1.5970    -2.1200 cc         1 VIQ      -0.096700
      6 C2           1.9740    -1.6660    -3.3030 cd         1 VIQ      -0.064600
      7 C6           3.4560    -1.4760    -3.5080 c3         1 VIQ      -0.025800
      8 N2           1.0580    -1.9380    -4.2700 na         1 VIQ       0.064400
      9 C3           1.3350    -2.1000    -5.7000 c3         1 VIQ       0.068600
     10 N3          -0.1970    -2.0370    -3.6570 nd         1 VIQ      -0.510800
     11 C4          -0.0450    -1.8380    -2.3720 cc         1 VIQ       0.351600
     12 C5          -1.1440    -1.8620    -1.3410 c3         1 VIQ      -0.103400
     13 C7           1.9180     1.4170    -0.9200 ca         1 VIQ      -0.347500
     14 C8           3.2550     1.7690    -0.9760 ca         1 VIQ       0.054700
     15 C16          4.2830     0.9410    -0.2500 c3         1 VIQ      -0.060800
     16 C9           3.6480     2.8800    -1.6970 ca         1 VIQ      -0.147300
     17 C10          5.1040     3.2630    -1.7570 c3         1 VIQ      -0.037800
     18 C11          2.7010     3.6430    -2.3660 ca         1 VIQ       0.198100
     19 O1           3.0850     4.7360    -3.0770 os         1 VIQ      -0.325900
     20 C15          2.0560     5.4730    -3.7390 c3         1 VIQ       0.126700
     21 C12          1.3620     3.2870    -2.3080 ca         1 VIQ      -0.252000
     22 C13          0.9740     2.1720    -1.5910 ca         1 VIQ       0.067700
     23 C14         -0.4800     1.7810    -1.5340 c3         1 VIQ      -0.076800
     24 H1           2.5470    -1.9780    -0.4710 hn         1 VIQ       0.453800
     25 H61C         3.8310    -2.2480    -4.1690 hc         1 VIQ       0.052367
     26 H62C         3.9640    -1.5390    -2.5530 hc         1 VIQ       0.052367
     27 H63C         3.6370    -0.5030    -3.9500 hc         1 VIQ       0.052367
     28 H31C         0.4040    -2.2540    -6.2330 h1         1 VIQ       0.054700
     29 H32C         1.8230    -1.2090    -6.0770 h1         1 VIQ       0.054700
     30 H33C         1.9820    -2.9560    -5.8480 h1         1 VIQ       0.054700
     31 H51C        -0.7150    -2.0310    -0.3600 hc         1 VIQ       0.057033
     32 H52C        -1.8400    -2.6590    -1.5730 hc         1 VIQ       0.057033
     33 H53C        -1.6660    -0.9130    -1.3480 hc         1 VIQ       0.057033
     34 H161         5.2050     0.9300    -0.8190 hc         1 VIQ       0.055367
     35 H162         4.4670     1.3700     0.7280 hc         1 VIQ       0.055367
     36 H163         3.9160    -0.0720    -0.1360 hc         1 VIQ       0.055367
     37 H101         5.6410     2.5440    -2.3630 hc         1 VIQ       0.045700
     38 H102         5.2000     4.2490    -2.1960 hc         1 VIQ       0.045700
     39 H103         5.5170     3.2720    -0.7560 hc         1 VIQ       0.045700
     40 H12          0.6200     3.8780    -2.8310 ha         1 VIQ       0.141000
     41 H151         1.5490     4.8290    -4.4470 h1         1 VIQ       0.044700
     42 H152         2.4950     6.3120    -4.2650 h1         1 VIQ       0.044700
     43 H153         1.3450     5.8370    -3.0080 h1         1 VIQ       0.044700
     44 H141        -0.7790     1.6490    -0.5000 hc         1 VIQ       0.066033
     45 H142        -1.0820     2.5600    -1.9860 hc         1 VIQ       0.066033
     46 H143        -0.6260     0.8530    -2.0730 hc         1 VIQ       0.066033
@<TRIPOS>BOND
     1     1     2 2
     2     2     3 2
     3     2     4 1
     4     2    13 1
     5     4     5 1
     6     5     6 2
     7     5    11 1
     8     6     7 1
     9     6     8 1
    10     8     9 1
    11     8    10 1
    12    10    11 2
    13    11    12 1
    14    13    14 ar
    15    13    22 ar
    16    14    15 1
    17    14    16 ar
    18    16    17 1
    19    16    18 ar
    20    18    19 1
    21    18    21 ar
    22    19    20 1
    23    21    22 ar
    24    22    23 1
    25     4    24 1
    26     7    25 1
    27     7    26 1
    28     7    27 1
    29     9    28 1
    30     9    29 1
    31     9    30 1
    32    12    31 1
    33    12    32 1
    34    12    33 1
    35    15    34 1
    36    15    35 1
    37    15    36 1
    38    17    37 1
    39    17    38 1
    40    17    39 1
    41    21    40 1
    42    20    41 1
    43    20    42 1
    44    20    43 1
    45    23    44 1
    46    23    45 1
    47    23    46 1
@<TRIPOS>SUBSTRUCTURE
     1 VIQ         1 TEMP              0 ****  ****    0 ROOT
