@<TRIPOS>MOLECULE
VIQ
   46    47     1     0     0
SMALL
bcc


@<TRIPOS>ATOM
      1 O2           0.0000     0.0000     0.0000 o          1 VIQ      -0.593800
      2 S            1.4210     0.0000     0.0000 sy         1 VIQ       1.039200
      3 O3           2.1980     0.0000     1.1900 o          1 VIQ      -0.593800
      4 N1           1.8880    -1.3340    -0.8630 nu         1 VIQ      -0.360500
      5 C1           1.3120    -1.5970    -2.1200 cc         1 VIQ      -0.182700
      6 C2           1.9740    -1.6660    -3.3030 cd         1 VIQ      -0.245600
      7 C6           3.4560    -1.4760    -3.5080 c3         1 VIQ       0.100200
      8 N2           1.0580    -1.9380    -4.2700 na         1 VIQ       0.488400
      9 C3           1.3350    -2.1000    -5.7000 c3         1 VIQ       0.026600
     10 N3          -0.1970    -2.0370    -3.6570 nd         1 VIQ      -0.651800
     11 C4          -0.0450    -1.8380    -2.3720 cc         1 VIQ       0.380600
     12 C5          -1.1440    -1.8620    -1.3410 c3         1 VIQ      -0.016400
     13 C7           1.9180     1.4170    -0.9200 ca         1 VIQ      -0.196500
     14 C8           3.2550     1.7690    -0.9760 ca         1 VIQ       0.061700
     15 C16          4.2830     0.9410    -0.2500 c3         1 VIQ       0.025200
     16 C9           3.6480     2.8800    -1.6970 ca         1 VIQ      -0.174300
     17 C10          5.1040     3.2630    -1.7570 c3         1 VIQ       0.073200
     18 C11          2.7010     3.6430    -2.3660 ca         1 VIQ       0.210100
     19 O1           3.0850     4.7360    -3.0770 os         1 VIQ      -0.305900
     20 C15          2.0560     5.4730    -3.7390 c3         1 VIQ       0.244700
     21 C12          1.3620     3.2870    -2.3080 ca         1 VIQ      -0.256000
     22 C13          0.9740     2.1720    -1.5910 ca         1 VIQ       0.079700
     23 C14         -0.4800     1.7810    -1.5340 c3         1 VIQ      -0.004800
     24 H1           2.5470    -1.9780    -0.4710 hn         1 VIQ       0.335800
     25 H61C         3.8310    -2.2480    -4.1690 hc         1 VIQ       0.011033
     26 H62C         3.9640    -1.5390    -2.5530 hc         1 VIQ       0.011033
     27 H63C         3.6370    -0.5030    -3.9500 hc         1 VIQ       0.011033
     28 H31C         0.4040    -2.2540    -6.2330 h1         1 VIQ       0.020033
     29 H32C         1.8230    -1.2090    -6.0770 h1         1 VIQ       0.020033
     30 H33C         1.9820    -2.9560    -5.8480 h1         1 VIQ       0.020033
     31 H51C        -0.7150    -2.0310    -0.3600 hc         1 VIQ       0.023367
     32 H52C        -1.8400    -2.6590    -1.5730 hc         1 VIQ       0.023367
     33 H53C        -1.6660    -0.9130    -1.3480 hc         1 VIQ       0.023367
     34 H161         5.2050     0.9300    -0.8190 hc         1 VIQ       0.025033
     35 H162         4.4670     1.3700     0.7280 hc         1 VIQ       0.025033
     36 H163         3.9160    -0.0720    -0.1360 hc         1 VIQ       0.025033
     37 H101         5.6410     2.5440    -2.3630 hc         1 VIQ       0.010367
     38 H102         5.2000     4.2490    -2.1960 hc         1 VIQ       0.010367
     39 H103         5.5170     3.2720    -0.7560 hc         1 VIQ       0.010367
     40 H12          0.6200     3.8780    -2.8310 ha         1 VIQ       0.130000
     41 H151         1.5490     4.8290    -4.4470 h1         1 VIQ      -0.000300
     42 H152         2.4950     6.3120    -4.2650 h1         1 VIQ      -0.000300
     43 H153         1.3450     5.8370    -3.0080 h1         1 VIQ      -0.000300
     44 H141        -0.7790     1.6490    -0.5000 hc         1 VIQ       0.038700
     45 H142        -1.0820     2.5600    -1.9860 hc         1 VIQ       0.038700
     46 H143        -0.6260     0.8530    -2.0730 hc         1 VIQ       0.038700
@<TRIPOS>BOND
     1     1     2 2   
     2     2     3 2   
     3     2     4 1   
     4     2    13 1   
     5     4     5 1   
     6     4    24 1   
     7     5     6 2   
     8     5    11 1   
     9     6     7 1   
    10     6     8 1   
    11     7    25 1   
    12     7    26 1   
    13     7    27 1   
    14     8     9 1   
    15     8    10 1   
    16     9    28 1   
    17     9    29 1   
    18     9    30 1   
    19    10    11 2   
    20    11    12 1   
    21    12    31 1   
    22    12    32 1   
    23    12    33 1   
    24    13    14 ar  
    25    13    22 ar  
    26    14    15 1   
    27    14    16 ar  
    28    15    34 1   
    29    15    35 1   
    30    15    36 1   
    31    16    17 1   
    32    16    18 ar  
    33    17    37 1   
    34    17    38 1   
    35    17    39 1   
    36    18    19 1   
    37    18    21 ar  
    38    19    20 1   
    39    20    41 1   
    40    20    42 1   
    41    20    43 1   
    42    21    22 ar  
    43    21    40 1   
    44    22    23 1   
    45    23    44 1   
    46    23    45 1   
    47    23    46 1   
@<TRIPOS>SUBSTRUCTURE
     1 VIQ         1 TEMP              0 ****  ****    0 ROOT
