@<TRIPOS>MOLECULE
VIR
   74    73     1     0     0
SMALL
bcc


@<TRIPOS>ATOM
      1 C1         -1.0080   -0.0610   -0.5080 c3        1 VIR      0.053000
      2 C10        -4.8810    2.1180    2.3860 c2        1 VIR      0.054000
      3 C12        -4.3760    1.8150    0.1800 c1        1 VIR      0.018000
      4 C13        -5.8650    2.6020    3.3740 c3        1 VIR     -0.188000
      5 C14        -6.3260    4.0060    3.0830 c2        1 VIR      0.193000
      6 C16        -5.6610    7.3650   -0.2890 c3        1 VIR     -0.180000
      7 C17        -6.7880    6.5930    0.2950 c2        1 VIR      0.137000
      8 C19        -7.7000    5.9250   -0.3970 cu        1 VIR     -0.331000
      9 C2          0.4110   -0.6540   -0.4100 c3        1 VIR     -0.086000
     10 C20        -8.2080    5.5330   -1.7220 cx        1 VIR     -0.101000
     11 C21        -8.9220    5.1310   -0.4330 cx        1 VIR     -0.116000
     12 C22        -7.5120    4.5240   -2.5240 c2        1 VIR     -0.041000
     13 C23        -6.7770    3.5320   -2.0060 c2        1 VIR     -0.266000
     14 C24        -6.1250    2.4870   -2.8430 c3        1 VIR     -0.073000
     15 C26        -3.8860    3.5310   -2.9200 c2        1 VIR      0.274000
     16 C28        -2.4870    2.1050   -4.4100 c1        1 VIR      0.062000
     17 C29        -1.4240    1.7650   -5.0910 c2        1 VIR     -0.389000
     18 C3          0.9370   -0.5590    0.9680 c2        1 VIR     -0.511000
     19 C30        -0.3710    0.7720   -4.7690 c3        1 VIR     -0.128000
     20 C31         2.0810    1.7760   -2.3620 c1        1 VIR     -0.055000
     21 C32        -0.9310   -0.5580   -4.2640 c3        1 VIR      0.039000
     22 C33        -0.2450   -1.7710   -4.9090 c3        1 VIR     -0.104000
     23 C34        -0.5740   -3.0460   -4.1590 c3        1 VIR     -0.213000
     24 C35        -0.6790   -1.8950   -6.3550 c3        1 VIR     -0.213000
     25 C37        -1.4250    0.0260   -1.9860 c2        1 VIR      0.309000
     26 C4          1.9600    0.1650    1.3660 c1        1 VIR      0.233000
     27 C6         -3.1270   -0.2760    0.8340 c2        1 VIR      0.341000
     28 C8         -3.2760    1.2300    1.0870 c3        1 VIR     -0.181000
     29 N25        -4.6770    2.3300   -2.5360 n4        1 VIR     -0.162000
     30 N5         -1.9850   -0.7860    0.2490 n         1 VIR     -0.365000
     31 N9         -3.7370    1.5170    2.4610 n2        1 VIR     -0.110000
     32 O11        -5.2910    2.3170    0.9600 os        1 VIR     -0.120000
     33 O27        -3.0780    3.9810   -2.1190 o         1 VIR     -0.233000
     34 O36        -0.6460   -0.6640   -2.8430 os        1 VIR     -0.242000
     35 O38        -2.3970    0.6630   -2.4160 o         1 VIR     -0.438000
     36 O7         -4.0280   -1.0550    1.1850 o         1 VIR     -0.313000
     37 H12        -2.3130    1.7970    0.9300 h1        1 VIR      0.187000
     38 H131       -5.4110    2.5810    4.4060 hc        1 VIR      0.166000
     39 H132       -6.7420    1.8920    3.3710 hc        1 VIR      0.166000
     40 H161       -5.5310    4.7500    2.8580 h4        1 VIR      0.126000
     41 H162       -5.7620    8.4430   -0.0040 hc        1 VIR      0.100667
     42 H17        -4.6880    6.9880    0.1110 hc        1 VIR      0.100667
     43 H19        -5.6650    7.2790   -1.4010 hc        1 VIR      0.100667
     44 HC2        -0.9540    1.0140   -0.1560 h1        1 VIR      0.133000
     45 H211       -8.8930    4.0710   -0.1150 hc        1 VIR      0.122500
     46 H212       -8.6870    6.3190   -2.3460 hc        1 VIR      0.139000
     47 H213       -9.8920    5.6100   -0.2000 hc        1 VIR      0.122500
     48 H22        -7.6460    4.6250   -3.6160 ha        1 VIR      0.129000
     49 H23        -6.6560    3.4170   -0.9140 ha        1 VIR      0.155000
     50 H241       -6.6150    1.4890   -2.6360 hx        1 VIR      0.127500
     51 H242       -6.2370    2.7120   -3.9430 hx        1 VIR      0.127500
     52 H28        -4.1500    3.9450   -3.9160 hx        1 VIR      0.185000
     53 H29        -1.2600    2.3110   -6.0500 ha        1 VIR      0.209000
     54 HC31        1.0560   -0.0710   -1.1300 hc        1 VIR      0.125000
     55 HC32        0.4090   -1.7240   -0.7500 hc        1 VIR      0.125000
     56 H30         0.3180    1.2050   -3.9830 hc        1 VIR      0.131000
     57 H311        2.7800    1.8030   -1.5120 ha        1 VIR      0.031000
     58 H312        0.2530    0.5870   -5.6850 hc        1 VIR      0.131000
     59 H313        2.5100    2.2530   -3.2560 ha        1 VIR      0.031000
     60 H32        -2.0440   -0.6190   -4.4110 h1        1 VIR      0.109000
     61 H33         0.8680   -1.6060   -4.8660 hc        1 VIR      0.106000
     62 H341       -1.6770   -3.2120   -4.1310 hc        1 VIR      0.084333
     63 H342       -0.0950   -3.9180   -4.6650 hc        1 VIR      0.084333
     64 H343       -0.1950   -2.9910   -3.1100 hc        1 VIR      0.084333
     65 H351       -0.1570   -2.7630   -6.8280 hc        1 VIR      0.084333
     66 H352       -1.7800   -2.0680   -6.4240 hc        1 VIR      0.084333
     67 H353       -0.4260   -0.9760   -6.9350 hc        1 VIR      0.084333
     68 HC41       -1.9330   -1.7840    0.1960 hn        1 VIR      0.255000
     69 HC42        0.4220   -1.1910    1.7240 ha        1 VIR      0.200000
     70 H25        -4.5400    2.1120   -1.4760 hn        1 VIR      0.294000
     71 O15        -7.5170    4.3090    3.1140 o         1 VIR     -0.262000
     72 H252       -4.2940    1.5340   -3.0670 hn        1 VIR      0.294000
     73 O18        -6.7660    6.6290    1.6700 oh        1 VIR     -0.273000
     74 H18'       -7.5830    6.2260    2.0120 ho        1 VIR      0.244000
@<TRIPOS>BOND
     1    1    9 1   
     2    1   25 1   
     3    1   30 1   
     4    1   44 1   
     5    2    4 1   
     6    2   31 1   
     7    2   32 1   
     8    3   28 1   
     9    3   32 1   
    10    4    5 1   
    11    4   38 1   
    12    4   39 1   
    13    5   40 1   
    14    5   71 1   
    15    6    7 1   
    16    6   41 1   
    17    6   42 1   
    18    6   43 1   
    19    7    8 1   
    20    7   73 1   
    21    8   10 1   
    22    8   11 1   
    23    9   18 1   
    24    9   54 1   
    25    9   55 1   
    26   10   11 1   
    27   10   12 1   
    28   10   46 1   
    29   11   45 1   
    30   11   47 1   
    31   12   13 1   
    32   12   48 1   
    33   13   14 1   
    34   13   49 1   
    35   14   29 1   
    36   14   50 1   
    37   14   51 1   
    38   15   29 1   
    39   15   33 1   
    40   15   52 1   
    41   16   17 1   
    42   17   19 1   
    43   17   53 1   
    44   18   26 1   
    45   18   69 1   
    46   19   21 1   
    47   19   56 1   
    48   19   58 1   
    49   20   57 1   
    50   20   59 1   
    51   21   22 1   
    52   21   34 1   
    53   21   60 1   
    54   22   23 1   
    55   22   24 1   
    56   22   61 1   
    57   23   62 1   
    58   23   63 1   
    59   23   64 1   
    60   24   65 1   
    61   24   66 1   
    62   24   67 1   
    63   25   34 1   
    64   25   35 1   
    65   27   28 1   
    66   27   30 1   
    67   27   36 1   
    68   28   31 1   
    69   28   37 1   
    70   29   70 1   
    71   29   72 1   
    72   30   68 1   
    73   73   74 1   
@<TRIPOS>SUBSTRUCTURE
     1 VIR         1 TEMP              0 ****  ****    0 ROOT
