@<TRIPOS>MOLECULE
molecule
   41    43     1     0     0
SMALL
bcc


@<TRIPOS>ATOM
      1 Cl1          0.0000     0.0000     0.0000 cl         1 VIS      -0.084400
      2 C11          1.7350     0.0000     0.0000 ca         1 VIS       0.044400
      3 C10          2.4270     0.0000     1.1970 ca         1 VIS      -0.110000
      4 C9           3.8080     0.0000     1.2000 ca         1 VIS      -0.147000
      5 C12          2.4330    -0.0070    -1.2080 cp         1 VIS      -0.115500
      6 C14          1.6930    -0.0140    -2.4940 cp         1 VIS       0.474800
      7 N1           0.6890     0.8340    -2.6800 nb         1 VIS      -0.667000
      8 C18          0.0080     0.8600    -3.8060 ca         1 VIS       0.422200
      9 C17          0.3170    -0.0010    -4.8430 ca         1 VIS      -0.252300
     10 C16          1.3600    -0.9030    -4.6910 ca         1 VIS      -0.094000
     11 C15          2.0630    -0.9050    -3.4990 ca         1 VIS      -0.231300
     12 C13          3.8260    -0.0070    -1.2040 ca         1 VIS      -0.105000
     13 C8           4.5110     0.0000     0.0010 ca         1 VIS       0.051600
     14 N            5.9100     0.0010     0.0110 ns         1 VIS      -0.473100
     15 C7           6.5900     0.6380    -0.9630 c          1 VIS       0.662700
     16 O2           5.9910     1.2890    -1.7970 o          1 VIS      -0.560100
     17 C4           8.0640     0.5450    -1.0170 ca         1 VIS      -0.095600
     18 C3           8.7550    -0.2020    -0.0620 ca         1 VIS      -0.120000
     19 C2          10.1300    -0.2860    -0.1180 ca         1 VIS      -0.041000
     20 C5           8.7720     1.1990    -2.0280 ca         1 VIS       0.054400
     21 Cl           7.9220     2.1260    -3.2260 cl         1 VIS      -0.043400
     22 C6          10.1490     1.1070    -2.0730 ca         1 VIS      -0.034000
     23 C1          10.8270     0.3700    -1.1190 ca         1 VIS      -0.270500
     24 S           12.5840     0.2560    -1.1840 sy         1 VIS       1.190300
     25 O           12.8800    -0.9730    -0.5370 o          1 VIS      -0.610800
     26 O1          12.8990     0.4580    -2.5550 o          1 VIS      -0.610800
     27 C           13.1630     1.6560    -0.1860 c3         1 VIS      -0.224300
     28 H1           1.8840     0.0000     2.1350 ha         1 VIS       0.148000
     29 H2           4.3460     0.0030     2.1410 ha         1 VIS       0.135000
     30 H3          -0.8060     1.5660    -3.9220 h4         1 VIS       0.025100
     31 H4          -0.2520     0.0270    -5.7650 ha         1 VIS       0.137000
     32 H5           1.6230    -1.5860    -5.4900 ha         1 VIS       0.138000
     33 H6           2.8830    -1.5950    -3.3460 ha         1 VIS       0.141000
     34 H7           4.3720    -0.0100    -2.1400 ha         1 VIS       0.170000
     35 H8           6.4060    -0.4890     0.7290 hn         1 VIS       0.326500
     36 H9           8.2120    -0.7160     0.7230 ha         1 VIS       0.137000
     37 H10         10.6670    -0.8640     0.6250 ha         1 VIS       0.159000
     38 H11         10.6990     1.6150    -2.8550 ha         1 VIS       0.170000
     39 H12         12.6950     1.6220     0.7900 h1         1 VIS       0.101033
     40 H13         14.2390     1.5980    -0.0720 h1         1 VIS       0.101033
     41 H14         12.9020     2.5840    -0.6800 h1         1 VIS       0.101033
@<TRIPOS>BOND
     1     9    10 ar
     2     9     8 ar
     3    10    11 ar
     4     8     7 ar
     5    11     6 ar
     6     7     6 ar
     7     6     5 1
     8     1     2 1
     9     5     2 ar
    10     5    12 ar
    11     2     3 ar
    12    12    13 ar
    13     3     4 ar
    14    13     4 ar
    15    13    14 1
    16    16    15 2
    17    21    20 1
    18    14    15 1
    19    15    17 1
    20    20    17 ar
    21    20    22 ar
    22    17    18 ar
    23    22    23 ar
    24    18    19 ar
    25    23    19 ar
    26    23    24 1
    27    26    24 2
    28    24    25 2
    29    24    27 1
    30     3    28 1
    31     4    29 1
    32     8    30 1
    33     9    31 1
    34    10    32 1
    35    11    33 1
    36    12    34 1
    37    14    35 1
    38    18    36 1
    39    19    37 1
    40    22    38 1
    41    27    39 1
    42    27    40 1
    43    27    41 1
@<TRIPOS>SUBSTRUCTURE
     1 VIS         1 TEMP              0 ****  ****    0 ROOT
