@<TRIPOS>MOLECULE
molecule
   81    82     1     0     0
SMALL
bcc


@<TRIPOS>ATOM
      1 C1           0.0000     0.0000     0.0000 c3         1 VIT      -0.094100
      2 C2          -0.2390    -5.4830   -12.2760 ca         1 VIT      -0.076300
      3 C3           0.3350    -5.4910   -11.0150 ca         1 VIT      -0.142300
      4 C4          -0.3610    -4.9940    -9.9310 ca         1 VIT       0.133100
      5 C5          -1.6410    -4.4710   -10.1280 ca         1 VIT      -0.103300
      6 C6          -2.2100    -4.4590   -11.3820 ca         1 VIT      -0.077300
      7 C7          -1.5110    -4.9700   -12.4650 ca         1 VIT       0.075100
      8 C8           0.5260    -6.0370   -13.4510 c3         1 VIT      -0.048800
      9 O1           0.1130    -4.9880    -8.6630 os         1 VIT      -0.297900
     10 C9           1.5330    -4.9840    -8.6610 c3         1 VIT       0.136800
     11 C10          1.7290    -6.0550   -10.8760 c3         1 VIT      -0.030100
     12 C11          2.0400    -6.2370    -9.3860 c3         1 VIT      -0.106400
     13 C13         -3.5930    -3.8930   -11.5770 c3         1 VIT      -0.047800
     14 O2          -2.0700    -4.9650   -13.7050 oh         1 VIT      -0.518100
     15 C14          2.0420    -3.7340    -9.3820 c3         1 VIT      -0.125100
     16 C15          2.0430    -4.9850    -7.2190 c3         1 VIT      -0.066400
     17 C17          2.0420    -3.7390    -5.0540 c3         1 VIT      -0.078400
     18 C18          1.5300    -2.4920    -4.3300 c3         1 VIT      -0.073700
     19 C19          0.0020    -2.4930    -4.3310 c3         1 VIT      -0.092100
     20 C20          2.0410    -2.4930    -2.8880 c3         1 VIT      -0.077400
     21 C21          1.5290    -1.2450    -2.1650 c3         1 VIT      -0.086400
     22 C22          2.0400    -1.2460    -0.7230 c3         1 VIT      -0.077400
     23 C23          1.5290     0.0000     0.0000 c3         1 VIT      -0.074700
     24 C24          2.0380     0.0000     1.4420 c3         1 VIT      -0.077400
     25 C25          1.5280     1.2470     2.1660 c3         1 VIT      -0.085400
     26 C26          2.0370     1.2470     3.6070 c3         1 VIT      -0.076400
     27 C27          1.5270     2.4930     4.3310 c3         1 VIT      -0.077700
     28 C28          2.0380     2.4920     5.7730 c3         1 VIT      -0.087600
     29 C29          2.0360     3.7440     3.6110 c3         1 VIT      -0.087600
     30 HC11        -0.3610    -0.9090    -0.4660 hc         1 VIT       0.035367
     31 HC12        -0.3610     0.8580    -0.5540 hc         1 VIT       0.035367
     32 HC13        -0.3610     0.0510     1.0200 hc         1 VIT       0.035367
     33 HC81         0.6350    -7.1090   -13.3370 hc         1 VIT       0.047033
     34 HC82        -0.0120    -5.8240   -14.3660 hc         1 VIT       0.047033
     35 HC83         1.5060    -5.5770   -13.4930 hc         1 VIT       0.047033
     36 H101         2.4430    -5.3690   -11.3140 hc         1 VIT       0.055200
     37 H102         1.7840    -7.0140   -11.3770 hc         1 VIT       0.055200
     38 H111         1.5090    -7.1050    -9.0140 hc         1 VIT       0.059200
     39 H112         3.1130    -6.3170    -9.2540 hc         1 VIT       0.059200
     40 H121        -3.4670    -4.0870    -9.1020 hc         1 VIT       0.046033
     41 H122        -2.2220    -2.8510    -8.8740 hc         1 VIT       0.046033
     42 H123        -2.0840    -4.4080    -8.0460 hc         1 VIT       0.046033
     43 H131        -4.3230    -4.5610   -11.1360 hc         1 VIT       0.047700
     44 H132        -3.6570    -2.9220   -11.1000 hc         1 VIT       0.047700
     45 H133        -3.7940    -3.7880   -12.6360 hc         1 VIT       0.047700
     46 HO21        -2.5620    -5.7590   -13.8310 ho         1 VIT       0.413000
     47 H141         1.8150    -3.8090   -10.4380 hc         1 VIT       0.050033
     48 H142         1.5570    -2.8570    -8.9690 hc         1 VIT       0.050033
     49 H143         3.1130    -3.6510    -9.2470 hc         1 VIT       0.050033
     50 H151         3.1260    -4.9840    -7.2190 hc         1 VIT       0.051700
     51 H152         1.6830    -5.8710    -6.7090 hc         1 VIT       0.051700
     52 H171         3.1250    -3.7370    -5.0540 hc         1 VIT       0.040200
     53 H172         1.6820    -4.6250    -4.5440 hc         1 VIT       0.040200
     54 H18          1.8910    -1.6060    -4.8400 hc         1 VIT       0.049700
     55 H191        -0.3590    -3.3930    -3.8480 hc         1 VIT       0.035700
     56 H192        -0.3600    -1.6250    -3.7940 hc         1 VIT       0.035700
     57 H193        -0.3590    -2.4620    -5.3520 hc         1 VIT       0.035700
     58 H201         1.6820    -3.3790    -2.3790 hc         1 VIT       0.040700
     59 H202         3.1240    -2.4910    -2.8890 hc         1 VIT       0.040700
     60 H211         0.4460    -1.2480    -2.1640 hc         1 VIT       0.045200
     61 H212         1.8880    -0.3590    -2.6740 hc         1 VIT       0.045200
     62 H221         3.1230    -1.2450    -0.7240 hc         1 VIT       0.040700
     63 H222         1.6800    -2.1320    -0.2130 hc         1 VIT       0.040700
     64 H23          1.8910     0.8850    -0.5100 hc         1 VIT       0.048700
     65 H241         1.6790    -0.8860     1.9510 hc         1 VIT       0.040700
     66 H242         3.1220     0.0010     1.4420 hc         1 VIT       0.040700
     67 H251         0.4450     1.2460     2.1660 hc         1 VIT       0.044200
     68 H252         1.8880     2.1320     1.6560 hc         1 VIT       0.044200
     69 H261         3.1210     1.2480     3.6070 hc         1 VIT       0.040700
     70 H262         1.6770     0.3610     4.1170 hc         1 VIT       0.040700
     71 H27          0.4430     2.4930     4.3320 hc         1 VIT       0.048700
     72 H281         1.6330     3.3480     6.3000 hc         1 VIT       0.033200
     73 H282         3.1200     2.5470     5.7730 hc         1 VIT       0.033200
     74 H283         1.7220     1.5810     6.2670 hc         1 VIT       0.033200
     75 H291         1.3960     3.9600     2.7650 hc         1 VIT       0.033200
     76 H292         2.0260     4.5840     4.2950 hc         1 VIT       0.033200
     77 H293         3.0480     3.5740     3.2640 hc         1 VIT       0.033200
     78 C16          1.5320    -3.7380    -6.4950 c3         1 VIT      -0.085400
     79 C12         -2.4070    -3.9150    -8.9550 c3         1 VIT      -0.039800
     80 H161         1.8910    -2.8520    -7.0040 hc         1 VIT       0.052200
     81 H162         0.4480    -3.7400    -6.4950 hc         1 VIT       0.052200
@<TRIPOS>BOND
     1     1    23 1
     2     1    30 1
     3     1    31 1
     4     1    32 1
     5     2     3 ar
     6     2     7 ar
     7     2     8 1
     8     3     4 ar
     9     3    11 1
    10     4     5 ar
    11     4     9 1
    12     5     6 ar
    13     5    79 1
    14     6     7 ar
    15     6    13 1
    16     7    14 1
    17     8    33 1
    18     8    34 1
    19     8    35 1
    20     9    10 1
    21    10    12 1
    22    10    15 1
    23    10    16 1
    24    11    12 1
    25    11    36 1
    26    11    37 1
    27    12    38 1
    28    12    39 1
    29    79    40 1
    30    79    41 1
    31    79    42 1
    32    13    43 1
    33    13    44 1
    34    13    45 1
    35    14    46 1
    36    15    47 1
    37    15    48 1
    38    15    49 1
    39    16    78 1
    40    16    50 1
    41    16    51 1
    42    78    17 1
    43    78    80 1
    44    78    81 1
    45    17    18 1
    46    17    52 1
    47    17    53 1
    48    18    19 1
    49    18    20 1
    50    18    54 1
    51    19    55 1
    52    19    56 1
    53    19    57 1
    54    20    21 1
    55    20    58 1
    56    20    59 1
    57    21    22 1
    58    21    60 1
    59    21    61 1
    60    22    23 1
    61    22    62 1
    62    22    63 1
    63    23    24 1
    64    23    64 1
    65    24    25 1
    66    24    65 1
    67    24    66 1
    68    25    26 1
    69    25    67 1
    70    25    68 1
    71    26    27 1
    72    26    69 1
    73    26    70 1
    74    27    28 1
    75    27    29 1
    76    27    71 1
    77    28    72 1
    78    28    73 1
    79    28    74 1
    80    29    75 1
    81    29    76 1
    82    29    77 1
@<TRIPOS>SUBSTRUCTURE
     1 VIT         1 TEMP              0 ****  ****    0 ROOT
