@<TRIPOS>MOLECULE
VIT
   81    79     1     0     0
SMALL
bcc


@<TRIPOS>ATOM
      1 C1         -0.7710    0.9380    0.1930 c3        1 VIT     -0.207000
      2 C2         -0.0790   -4.9280  -12.5490 ca        1 VIT     -0.194000
      3 C3          0.4860   -5.5730  -11.4170 ca        1 VIT     -0.064000
      4 C4         -0.1240   -5.4550  -10.1710 ca        1 VIT      0.011000
      5 C5         -1.3490   -4.7580  -10.0010 ca        1 VIT      0.021000
      6 C6         -1.9570   -4.1800  -11.1160 ca        1 VIT     -0.178000
      7 C7         -1.3050   -4.2390  -12.3720 ca        1 VIT      0.171000
      8 C8          0.5490   -4.8760  -13.8210 c1        1 VIT     -0.046000
      9 O1          0.3690   -6.0470   -9.0170 os        1 VIT     -0.181000
     10 C9          1.7690   -6.4050   -9.0480 c3        1 VIT     -0.017000
     11 C10         1.7650   -6.3170  -11.5620 c3        1 VIT     -0.127000
     12 C11         2.0920   -7.1520  -10.3440 c3        1 VIT     -0.180000
     13 C13        -3.2670   -3.4930  -11.0060 c3        1 VIT     -0.184000
     14 O2         -1.8480   -3.6840  -13.4980 oh        1 VIT     -0.208000
     15 C14         2.6190   -5.1440   -8.8820 c3        1 VIT     -0.240000
     16 C15         1.9800   -7.2710   -7.8640 c1        1 VIT      0.034000
     17 C17         1.4130   -3.9440   -5.4560 c3        1 VIT     -0.155000
     18 C18         1.1990   -3.1510   -4.1750 c3        1 VIT     -0.108000
     19 C19        -0.0730   -2.3320   -4.2370 c3        1 VIT     -0.210500
     20 C20         2.3860   -2.2460   -3.9130 c3        1 VIT     -0.210500
     21 C21         0.6420    0.8680   -2.5790 c3        1 VIT     -0.215000
     22 C22         1.1040    0.2200   -1.3000 c3        1 VIT     -0.157000
     23 C23         0.7200    1.0210   -0.0620 c3        1 VIT     -0.105000
     24 C24         1.5070    0.5180    1.1410 c3        1 VIT     -0.153000
     25 C25         1.4750    1.4970    2.2980 c3        1 VIT     -0.129000
     26 C26         2.2900    1.0300    3.4430 c2        1 VIT     -0.172000
     27 C27         2.5500    1.7840    4.5240 c2        1 VIT     -0.117000
     28 C28         3.3660    1.2780    5.6530 c3        1 VIT     -0.179500
     29 C29         2.0440    3.1710    4.6590 c3        1 VIT     -0.179500
     30 HC11       -1.3390    1.3280   -0.6860 hc        1 VIT      0.072667
     31 HC12       -1.0490    1.5460    1.0870 hc        1 VIT      0.072667
     32 HC13       -1.0820   -0.1190    0.3740 hc        1 VIT      0.072667
     33 HC81        2.2470   -3.3350  -13.5730 ha        1 VIT      0.008000
     34 HC82        2.5560   -3.7840  -13.1660 ha        1 VIT      0.008000
     35 HC83        1.2770   -5.6730  -14.0450 ha        1 VIT      0.033000
     36 H101        1.7110   -6.9940  -12.4600 hc        1 VIT      0.105000
     37 H102        2.5930   -5.5790  -11.7530 hc        1 VIT      0.105000
     38 H111        1.4910   -8.0990  -10.3660 hc        1 VIT      0.101500
     39 H112        3.1790   -7.4250  -10.3540 hc        1 VIT      0.101500
     40 H121       -1.2430   -4.9990   -7.8570 hc        1 VIT      0.099333
     41 H122       -2.8640   -5.3290   -8.6020 hc        1 VIT      0.099333
     42 H123       -2.2710   -3.6180   -8.4330 hc        1 VIT      0.099333
     43 H131       -3.7780   -3.7250  -10.0400 hc        1 VIT      0.088333
     44 H132       -3.1330   -2.3840  -11.0710 hc        1 VIT      0.088333
     45 H133       -3.9520   -3.8200  -11.8310 hc        1 VIT      0.088333
     46 HO21       -2.5750   -3.0960  -13.2390 ho        1 VIT      0.217000
     47 H141        2.4140   -4.6750   -7.8870 hc        1 VIT      0.098667
     48 H142        2.3520   -4.4100   -9.6800 hc        1 VIT      0.098667
     49 H143        3.7020   -5.3960   -8.9620 hc        1 VIT      0.098667
     50 H151        0.6930   -5.6980   -6.5130 hc        1 VIT      0.081667
     51 H152        3.0100   -7.6670   -7.8170 ha        1 VIT      0.036000
     52 H171        1.2870   -3.2620   -6.3390 hc        1 VIT      0.072000
     53 H172        2.4710   -4.3200   -5.4770 hc        1 VIT      0.072000
     54 H18         3.3210   -2.8470   -3.8040 hc        1 VIT      0.072500
     55 H191       -0.9600   -2.9960   -4.3750 hc        1 VIT      0.072500
     56 H192       -0.0340   -1.6100   -5.0880 hc        1 VIT      0.072500
     57 H193       -0.2050   -1.7510   -3.2910 hc        1 VIT      0.072500
     58 H201        0.9890    0.2680   -3.4580 hc        1 VIT      0.073333
     59 H202        1.1120   -3.8790   -3.3190 hc        1 VIT      0.087000
     60 H211        2.2270   -1.6610   -2.9740 hc        1 VIT      0.072500
     61 H212        2.5230   -1.5270   -4.7560 hc        1 VIT      0.072500
     62 H221       -0.4730    0.9280   -2.6190 hc        1 VIT      0.073333
     63 H222        1.0530    1.9020   -2.6710 hc        1 VIT      0.073333
     64 H23         2.2210    0.1070   -1.3340 hc        1 VIT      0.078500
     65 H241        0.6700   -0.8130   -1.2230 hc        1 VIT      0.078500
     66 H242        0.9930    2.0990   -0.2410 hc        1 VIT      0.087000
     67 H251        2.5750    0.3480    0.8420 hc        1 VIT      0.080500
     68 H252        1.0920   -0.4700    1.4710 hc        1 VIT      0.080500
     69 H261        0.4140    1.6490    2.6400 hc        1 VIT      0.086500
     70 H262        1.8490    2.5000    1.9530 hc        1 VIT      0.086500
     71 H27         2.6840    0.0030    3.3710 ha        1 VIT      0.122000
     72 H281        4.2450    1.9480    5.8210 hc        1 VIT      0.079333
     73 H282        3.7410    0.2430    5.4610 hc        1 VIT      0.079333
     74 H283        2.7550    1.2630    6.5910 hc        1 VIT      0.079333
     75 H291        2.2310    3.5740    5.6850 hc        1 VIT      0.079333
     76 H292        0.9440    3.2090    4.4580 hc        1 VIT      0.079333
     77 H293        2.5520    3.8410    3.9190 hc        1 VIT      0.079333
     78 C16         0.4720   -5.1150   -5.5800 c3        1 VIT     -0.224000
     79 C12        -1.9600   -4.6700   -8.6540 c3        1 VIT     -0.193000
     80 H161        0.5770   -5.8010   -4.7050 hc        1 VIT      0.081667
     81 H162       -0.5890   -4.7690   -5.6270 hc        1 VIT      0.081667
@<TRIPOS>BOND
     1    1   23 1   
     2    1   30 1   
     3    1   31 1   
     4    1   32 1   
     5    2    3 1   
     6    2    7 1   
     7    2    8 1   
     8    3    4 1   
     9    3   11 1   
    10    4    5 1   
    11    4    9 1   
    12    5    6 1   
    13    5   79 1   
    14    6    7 1   
    15    6   13 1   
    16    7   14 1   
    17    8   35 1   
    18    9   10 1   
    19   10   12 1   
    20   10   15 1   
    21   10   16 1   
    22   11   12 1   
    23   11   36 1   
    24   11   37 1   
    25   12   38 1   
    26   12   39 1   
    27   13   43 1   
    28   13   44 1   
    29   13   45 1   
    30   14   46 1   
    31   15   47 1   
    32   15   48 1   
    33   15   49 1   
    34   16   51 1   
    35   17   18 1   
    36   17   52 1   
    37   17   53 1   
    38   17   78 1   
    39   18   19 1   
    40   18   20 1   
    41   18   59 1   
    42   19   55 1   
    43   19   56 1   
    44   19   57 1   
    45   20   54 1   
    46   20   60 1   
    47   20   61 1   
    48   21   22 1   
    49   21   58 1   
    50   21   62 1   
    51   21   63 1   
    52   22   23 1   
    53   22   64 1   
    54   22   65 1   
    55   23   24 1   
    56   23   66 1   
    57   24   25 1   
    58   24   67 1   
    59   24   68 1   
    60   25   26 1   
    61   25   69 1   
    62   25   70 1   
    63   26   27 1   
    64   26   71 1   
    65   27   28 1   
    66   27   29 1   
    67   28   72 1   
    68   28   73 1   
    69   28   74 1   
    70   29   75 1   
    71   29   76 1   
    72   29   77 1   
    73   33   34 1   
    74   40   79 1   
    75   41   79 1   
    76   42   79 1   
    77   50   78 1   
    78   78   80 1   
    79   78   81 1   
@<TRIPOS>SUBSTRUCTURE
     1 VIT         1 TEMP              0 ****  ****    0 ROOT
