@<TRIPOS>MOLECULE
VIV
   81    82     1     0     0
SMALL
bcc


@<TRIPOS>ATOM
      1 O1          0.1500    0.5880   -0.0640 os        1 VIV     -0.327900
      2 O2          5.4670   -0.9410   -0.2700 oh        1 VIV     -0.509100
      3 C1         -8.5190    3.9350    5.0950 c3        1 VIV     -0.089100
      4 C2          3.4630   -0.2890   -1.4950 ca        1 VIV     -0.103300
      5 C3          2.1140    0.0980   -1.4450 ca        1 VIV     -0.122300
      6 C4          1.4830    0.2450   -0.2010 ca        1 VIV      0.120100
      7 C5          2.1670   -0.0020    1.0080 ca        1 VIV     -0.083300
      8 C6          3.5140   -0.3830    0.9600 ca        1 VIV     -0.064300
      9 C7          4.1490   -0.5150   -0.2910 ca        1 VIV      0.080100
     10 C8          4.1220   -0.4580   -2.8110 c3        1 VIV     -0.049800
     11 C9         -0.4700    1.2190   -1.2060 c3        1 VIV      0.155800
     12 C10         1.3700    0.3620   -2.7050 c3        1 VIV     -0.027100
     13 C11        -0.1230    0.4620   -2.4870 c3        1 VIV     -0.102400
     14 C12         1.4820    0.1400    2.3140 c3        1 VIV     -0.045800
     15 C13         4.2550   -0.6550    2.2130 c3        1 VIV     -0.048800
     16 C14        -0.0310    2.6740   -1.2840 c3        1 VIV     -0.115100
     17 C15        -1.9780    1.1000   -0.9440 c3        1 VIV     -0.070400
     18 C16        -2.4210    1.8070    0.3190 c3        1 VIV     -0.078400
     19 C17        -3.8700    1.4960    0.6290 c3        1 VIV     -0.076400
     20 C18        -4.3870    2.2800    1.8290 c3        1 VIV     -0.064700
     21 C19        -3.7790    1.7600    3.1150 c3        1 VIV     -0.090100
     22 C20        -5.9080    2.2050    1.8760 c3        1 VIV     -0.076400
     23 C21        -6.5090    3.2610    2.7790 c3        1 VIV     -0.079400
     24 C22        -8.0220    3.1950    2.7580 c3        1 VIV     -0.076400
     25 C23        -8.6620    4.2720    3.6250 c3        1 VIV     -0.064700
     26 C24       -10.1270    4.4370    3.2440 c3        1 VIV     -0.076400
     27 C25       -10.7280    5.7120    3.7980 c3        1 VIV     -0.079400
     28 C26       -12.1590    5.8830    3.3330 c3        1 VIV     -0.076400
     29 C27       -12.7890    7.1640    3.8620 c3        1 VIV     -0.067700
     30 C28       -14.0170    7.5160    3.0460 c3        1 VIV     -0.089600
     31 C29       -13.1570    7.0360    5.3260 c3        1 VIV     -0.089600
     32 HO21        5.9490   -0.4140   -0.9240 ho        1 VIV      0.412000
     33 HC12       -8.9530    4.7480    5.7260 hc        1 VIV      0.033700
     34 HC13       -9.0490    2.9820    5.3340 hc        1 VIV      0.033700
     35 HC81        3.6240   -1.2820   -3.3830 hc        1 VIV      0.044033
     36 HC82        4.0360    0.4830   -3.4120 hc        1 VIV      0.044033
     37 HC83        5.2030   -0.7190   -2.7180 hc        1 VIV      0.044033
     38 H101        1.7580    1.3140   -3.1620 hc        1 VIV      0.052700
     39 H102        1.5740   -0.4610   -3.4450 hc        1 VIV      0.052700
     40 H111       -0.6000    0.9810   -3.3580 hc        1 VIV      0.055700
     41 H112       -0.5590   -0.5700   -2.4200 hc        1 VIV      0.055700
     42 H121        0.3910    0.3470    2.1830 hc        1 VIV      0.047700
     43 H122        1.9350    0.9840    2.8950 hc        1 VIV      0.047700
     44 H123        1.5970   -0.7970    2.9140 hc        1 VIV      0.047700
     45 H131        4.1160    0.1860    2.9380 hc        1 VIV      0.049367
     46 H132        5.3480   -0.7830    2.0180 hc        1 VIV      0.049367
     47 H133        3.8690   -1.5920    2.6880 hc        1 VIV      0.049367
     48 H141        1.0500    2.7390   -1.5540 hc        1 VIV      0.047700
     49 H142       -0.1740    3.1700   -0.2940 hc        1 VIV      0.047700
     50 H143       -0.6350    3.2100   -2.0530 hc        1 VIV      0.047700
     51 H151       -2.2380    0.0110   -0.8670 hc        1 VIV      0.049700
     52 H152       -2.5140    1.5240   -1.8310 hc        1 VIV      0.049700
     53 H161       -2.2920    2.9150    0.1990 hc        1 VIV      0.049700
     54 H162       -1.7640    1.4830    1.1700 hc        1 VIV      0.049700
     55 H171       -3.9880    0.3980    0.8230 hc        1 VIV      0.039200
     56 H172       -4.4940    1.7440   -0.2710 hc        1 VIV      0.039200
     57 H18        -4.0880    3.3590    1.7030 hc        1 VIV      0.046700
     58 H191       -4.1510    2.3470    3.9890 hc        1 VIV      0.034033
     59 H192       -4.0470    0.6870    3.2710 hc        1 VIV      0.034033
     60 H193       -2.6660    1.8450    3.0840 hc        1 VIV      0.034033
     61 H201       -6.3180    2.3390    0.8390 hc        1 VIV      0.039200
     62 H202       -6.2200    1.1870    2.2260 hc        1 VIV      0.039200
     63 H211       -6.1380    3.1180    3.8280 hc        1 VIV      0.040700
     64 H212       -6.1730    4.2780    2.4450 hc        1 VIV      0.040700
     65 H221       -8.3740    3.3130    1.6980 hc        1 VIV      0.039700
     66 H222       -8.3600    2.1840    3.1080 hc        1 VIV      0.039700
     67 H23        -8.1320    5.2470    3.4280 hc        1 VIV      0.047700
     68 H241      -10.2200    4.4500    2.1250 hc        1 VIV      0.039700
     69 H242      -10.7100    3.5530    3.6150 hc        1 VIV      0.039700
     70 H251      -10.6950    5.6920    4.9190 hc        1 VIV      0.040200
     71 H252      -10.1160    6.5920    3.4650 hc        1 VIV      0.040200
     72 H261      -12.1800    5.9010    2.2110 hc        1 VIV      0.039700
     73 H262      -12.7700    5.0030    3.6630 hc        1 VIV      0.039700
     74 H27       -12.0410    8.0000    3.7550 hc        1 VIV      0.045700
     75 H281      -13.7410    7.6830    1.9780 hc        1 VIV      0.033033
     76 H282      -14.4900    8.4470    3.4400 hc        1 VIV      0.033033
     77 H283      -14.7680    6.6910    3.0930 hc        1 VIV      0.033033
     78 H291      -13.8990    6.2150    5.4740 hc        1 VIV      0.033033
     79 H292      -12.2520    6.8100    5.9400 hc        1 VIV      0.033033
     80 H293      -13.6060    7.9890    5.6960 hc        1 VIV      0.033033
     81 HC11       -7.4420    3.8190    5.3670 hc        1 VIV      0.033700
@<TRIPOS>BOND
     1    1    6 1   
     2    1   11 1   
     3    2    9 1   
     4    2   32 1   
     5    3   25 1   
     6    3   33 1   
     7    3   34 1   
     8    3   81 1   
     9    4    5 ar  
    10    4    9 ar  
    11    4   10 1   
    12    5    6 ar  
    13    5   12 1   
    14    6    7 ar  
    15    7    8 ar  
    16    7   14 1   
    17    8    9 ar  
    18    8   15 1   
    19   10   35 1   
    20   10   36 1   
    21   10   37 1   
    22   11   13 1   
    23   11   16 1   
    24   11   17 1   
    25   12   13 1   
    26   12   38 1   
    27   12   39 1   
    28   13   40 1   
    29   13   41 1   
    30   14   42 1   
    31   14   43 1   
    32   14   44 1   
    33   15   45 1   
    34   15   46 1   
    35   15   47 1   
    36   16   48 1   
    37   16   49 1   
    38   16   50 1   
    39   17   18 1   
    40   17   51 1   
    41   17   52 1   
    42   18   19 1   
    43   18   53 1   
    44   18   54 1   
    45   19   20 1   
    46   19   55 1   
    47   19   56 1   
    48   20   21 1   
    49   20   22 1   
    50   20   57 1   
    51   21   58 1   
    52   21   59 1   
    53   21   60 1   
    54   22   23 1   
    55   22   61 1   
    56   22   62 1   
    57   23   24 1   
    58   23   63 1   
    59   23   64 1   
    60   24   25 1   
    61   24   65 1   
    62   24   66 1   
    63   25   26 1   
    64   25   67 1   
    65   26   27 1   
    66   26   68 1   
    67   26   69 1   
    68   27   28 1   
    69   27   70 1   
    70   27   71 1   
    71   28   29 1   
    72   28   72 1   
    73   28   73 1   
    74   29   30 1   
    75   29   31 1   
    76   29   74 1   
    77   30   75 1   
    78   30   76 1   
    79   30   77 1   
    80   31   78 1   
    81   31   79 1   
    82   31   80 1   
@<TRIPOS>SUBSTRUCTURE
     1 VIV         1 TEMP              0 ****  ****    0 ROOT
