@<TRIPOS>MOLECULE
molecule
   81    82     1     0     0
SMALL
bcc


@<TRIPOS>ATOM
      1 O1           0.0000     0.0000     0.0000 os         1 VIV      -0.297900
      2 O2           5.4880    -0.0750     0.2670 oh         1 VIV      -0.517100
      3 C1          -8.2850     4.0620     4.4260 c3         1 VIV      -0.092100
      4 C2           3.5090    -0.0420    -1.0540 ca         1 VIV      -0.076300
      5 C3           2.1260    -0.0140    -1.1460 ca         1 VIV      -0.142300
      6 C4           1.3560     0.0000     0.0000 ca         1 VIV       0.133100
      7 C5           1.9870     0.0000     1.2450 ca         1 VIV      -0.103300
      8 C6           3.3610    -0.0240     1.3360 ca         1 VIV      -0.079300
      9 C7           4.1310    -0.0480     0.1830 ca         1 VIV       0.075100
     10 C8           4.3420    -0.0660    -2.3100 c3         1 VIV      -0.047800
     11 C9          -0.5000     0.5620    -1.2030 c3         1 VIV       0.136800
     12 C10          1.5090     0.0020    -2.5240 c3         1 VIV      -0.030100
     13 C11          0.0050    -0.2650    -2.3920 c3         1 VIV      -0.106400
     14 C12          1.1560     0.0260     2.5030 c3         1 VIV      -0.039800
     15 C13          4.0270    -0.0230     2.6890 c3         1 VIV      -0.044800
     16 C14         -0.0080     2.0050    -1.3370 c3         1 VIV      -0.125100
     17 C15         -2.0300     0.5440    -1.1790 c3         1 VIV      -0.066400
     18 C16         -2.5340     1.4660    -0.0680 c3         1 VIV      -0.085400
     19 C17         -4.0640     1.4480    -0.0440 c3         1 VIV      -0.078400
     20 C18         -4.5680     2.3700     1.0680 c3         1 VIV      -0.073700
     21 C19         -4.1350     1.8140     2.4270 c3         1 VIV      -0.093100
     22 C20         -6.0940     2.4490     1.0120 c3         1 VIV      -0.077400
     23 C21         -6.5900     3.4650     2.0420 c3         1 VIV      -0.084400
     24 C22         -8.1170     3.5450     1.9870 c3         1 VIV      -0.077400
     25 C23         -8.6130     4.5620     3.0170 c3         1 VIV      -0.074700
     26 C24        -10.1270     4.7330     2.8770 c3         1 VIV      -0.077400
     27 C25        -10.6050     5.8390     3.8190 c3         1 VIV      -0.084400
     28 C26        -12.1190     6.0100     3.6780 c3         1 VIV      -0.076400
     29 C27        -12.5970     7.1160     4.6210 c3         1 VIV      -0.077700
     30 C28        -14.0870     7.3740     4.3920 c3         1 VIV      -0.087600
     31 C29        -12.3720     6.6830     6.0710 c3         1 VIV      -0.087600
     32 HO21         5.8170     0.8060     0.3250 ho         1 VIV       0.412000
     33 HC12        -7.6340     4.7740     4.9180 hc         1 VIV       0.035033
     34 HC13        -7.7880     3.1020     4.3620 hc         1 VIV       0.035033
     35 HC81         5.3890    -0.1550    -2.0480 hc         1 VIV       0.047033
     36 HC82         4.1850     0.8510    -2.8650 hc         1 VIV       0.047033
     37 HC83         4.0490    -0.9120    -2.9210 hc         1 VIV       0.047033
     38 H101         1.6660     0.9720    -2.9800 hc         1 VIV       0.055200
     39 H102         1.9620    -0.7700    -3.1330 hc         1 VIV       0.055200
     40 H111        -0.4960     0.0640    -3.2950 hc         1 VIV       0.059200
     41 H112        -0.1540    -1.3170    -2.1880 hc         1 VIV       0.059200
     42 H121         1.5840    -0.6500     3.2330 hc         1 VIV       0.045700
     43 H122         1.1430     1.0320     2.9060 hc         1 VIV       0.045700
     44 H123         0.1440    -0.2840     2.2730 hc         1 VIV       0.045700
     45 H131         3.8010    -0.9500     3.2030 hc         1 VIV       0.046700
     46 H132         3.6600     0.8120     3.2720 hc         1 VIV       0.046700
     47 H133         5.0990     0.0670     2.5630 hc         1 VIV       0.046700
     48 H141         1.0690     2.0090    -1.4560 hc         1 VIV       0.049367
     49 H142        -0.2750     2.5620    -0.4480 hc         1 VIV       0.049367
     50 H143        -0.4680     2.4640    -2.2040 hc         1 VIV       0.049367
     51 H151        -2.3760    -0.4660    -0.9950 hc         1 VIV       0.052700
     52 H152        -2.4100     0.8870    -2.1340 hc         1 VIV       0.052700
     53 H161        -2.1530     1.1230     0.8870 hc         1 VIV       0.051200
     54 H162        -2.1870     2.4760    -0.2520 hc         1 VIV       0.051200
     55 H171        -4.4440     1.7920    -0.9980 hc         1 VIV       0.040700
     56 H172        -4.4100     0.4380     0.1400 hc         1 VIV       0.040700
     57 H18         -4.1500     3.3600     0.9330 hc         1 VIV       0.049700
     58 H191        -3.5340     0.9250     2.2790 hc         1 VIV       0.036033
     59 H192        -3.5510     2.5600     2.9520 hc         1 VIV       0.036033
     60 H193        -5.0120     1.5640     3.0110 hc         1 VIV       0.036033
     61 H201        -6.5150     1.4750     1.2340 hc         1 VIV       0.041200
     62 H202        -6.4030     2.7590     0.0210 hc         1 VIV       0.041200
     63 H211        -6.1700     4.4390     1.8210 hc         1 VIV       0.043700
     64 H212        -6.2810     3.1560     3.0330 hc         1 VIV       0.043700
     65 H221        -8.5380     2.5720     2.2080 hc         1 VIV       0.040700
     66 H222        -8.4260     3.8550     0.9960 hc         1 VIV       0.040700
     67 H23         -8.1250     5.5140     2.8480 hc         1 VIV       0.049700
     68 H241       -10.3680     5.0010     1.8550 hc         1 VIV       0.040700
     69 H242       -10.6210     3.8030     3.1320 hc         1 VIV       0.040700
     70 H251       -10.3650     5.5720     4.8410 hc         1 VIV       0.043200
     71 H252       -10.1110     6.7690     3.5640 hc         1 VIV       0.043200
     72 H261       -12.3590     6.2790     2.6570 hc         1 VIV       0.041200
     73 H262       -12.6130     5.0800     3.9330 hc         1 VIV       0.041200
     74 H27        -12.0390     8.0240     4.4250 hc         1 VIV       0.048700
     75 H281       -14.4470     8.0870     5.1240 hc         1 VIV       0.032867
     76 H282       -14.6340     6.4450     4.4940 hc         1 VIV       0.032867
     77 H283       -14.2360     7.7730     3.3960 hc         1 VIV       0.032867
     78 H291       -13.0500     7.2240     6.7190 hc         1 VIV       0.032867
     79 H292       -12.5550     5.6190     6.1630 hc         1 VIV       0.032867
     80 H293       -11.3500     6.8990     6.3580 hc         1 VIV       0.032867
     81 HC11        -9.2010     3.9580     4.9940 hc         1 VIV       0.035033
@<TRIPOS>BOND
     1     1     6 1
     2     1    11 1
     3     2     9 1
     4     2    32 1
     5     3    25 1
     6     3    81 1
     7     3    33 1
     8     3    34 1
     9     4     5 ar
    10     4     9 ar
    11     4    10 1
    12     5     6 ar
    13     5    12 1
    14     6     7 ar
    15     7     8 ar
    16     7    14 1
    17     8     9 ar
    18     8    15 1
    19    10    35 1
    20    10    36 1
    21    10    37 1
    22    11    13 1
    23    11    16 1
    24    11    17 1
    25    12    13 1
    26    12    38 1
    27    12    39 1
    28    13    40 1
    29    13    41 1
    30    14    42 1
    31    14    43 1
    32    14    44 1
    33    15    45 1
    34    15    46 1
    35    15    47 1
    36    16    48 1
    37    16    49 1
    38    16    50 1
    39    17    18 1
    40    17    51 1
    41    17    52 1
    42    18    19 1
    43    18    53 1
    44    18    54 1
    45    19    20 1
    46    19    55 1
    47    19    56 1
    48    20    21 1
    49    20    22 1
    50    20    57 1
    51    21    58 1
    52    21    59 1
    53    21    60 1
    54    22    23 1
    55    22    61 1
    56    22    62 1
    57    23    24 1
    58    23    63 1
    59    23    64 1
    60    24    25 1
    61    24    65 1
    62    24    66 1
    63    25    26 1
    64    25    67 1
    65    26    27 1
    66    26    68 1
    67    26    69 1
    68    27    28 1
    69    27    70 1
    70    27    71 1
    71    28    29 1
    72    28    72 1
    73    28    73 1
    74    29    30 1
    75    29    31 1
    76    29    74 1
    77    30    75 1
    78    30    76 1
    79    30    77 1
    80    31    78 1
    81    31    79 1
    82    31    80 1
@<TRIPOS>SUBSTRUCTURE
     1 VIV         1 TEMP              0 ****  ****    0 ROOT
