@<TRIPOS>MOLECULE
VJ6
   83    84     1     0     0
SMALL
bcc


@<TRIPOS>ATOM
      1 C1         -0.7270   -0.9710    0.1320 c         1 VJ6      0.670300
      2 N1          0.4490   -0.2750    0.2340 n         1 VJ6     -0.447100
      3 O1         -1.4950   -1.1640    1.1090 o         1 VJ6     -0.670100
      4 C2         -1.1020   -1.6150   -1.1760 ce        1 VJ6     -0.143400
      5 N2         -7.4660   -0.7960   -0.0830 n4        1 VJ6     -0.719400
      6 O2         -4.0850   -4.9200    0.3330 os        1 VJ6     -0.411900
      7 C3         -2.4120   -1.6350   -1.4730 c2        1 VJ6     -0.160200
      8 N3         -3.2720   -6.2800    2.0960 n4        1 VJ6     -0.730400
      9 O3         -5.7390   -2.2810    0.4530 os        1 VJ6     -0.398900
     10 C4         -3.1070   -2.5940   -2.3580 c3        1 VJ6     -0.057200
     11 O4         -5.2100   -0.0770    0.0190 o         1 VJ6     -0.387000
     12 C5         -4.1150   -3.4130   -1.5490 c3        1 VJ6     -0.084400
     13 O5         -3.0760   -5.4690    4.7570 os        1 VJ6     -0.504600
     14 C6         -3.7180   -3.5660   -0.0830 c3        1 VJ6      0.151100
     15 O6         -1.2230   -4.4420    3.0770 os        1 VJ6     -0.489600
     16 C7         -4.3650   -2.5840    0.9110 c3        1 VJ6      0.190300
     17 O7         -2.0330   -5.8990    0.1030 o         1 VJ6     -0.377000
     18 C8         -4.5000   -3.1040    2.3120 c2        1 VJ6     -0.231400
     19 O8          2.9240    2.6630    3.2760 os        1 VJ6     -0.312900
     20 C9         -3.5470   -2.7900    3.2090 c2        1 VJ6     -0.064200
     21 O9          0.9250   -2.9070    4.5270 os        1 VJ6     -0.427600
     22 C10        -3.5860   -3.1450    4.6530 c3        1 VJ6     -0.055500
     23 C11        -2.5280   -4.1770    5.0770 c3        1 VJ6      0.145100
     24 C12        -1.1180   -4.1030    4.4650 c3        1 VJ6      0.121100
     25 C13        -0.4800   -2.7270    4.6710 c3        1 VJ6      0.096400
     26 C14        -2.9080   -6.4300    5.7960 c3        1 VJ6      0.108700
     27 C15         1.6940   -1.7410    4.8090 c3        1 VJ6      0.170700
     28 C16         1.6660   -0.7090    3.7260 ca        1 VJ6     -0.078300
     29 C17         2.2780    0.5200    3.9610 ca        1 VJ6     -0.151000
     30 C18         2.2900    1.4900    2.9380 ca        1 VJ6      0.161100
     31 C19         1.6850    1.2510    1.6990 ca        1 VJ6     -0.217000
     32 C20         1.0620    0.0060    1.4810 ca        1 VJ6      0.071600
     33 C21         1.0730   -0.9730    2.4900 ca        1 VJ6     -0.172000
     34 C22        -0.0140   -2.2850   -1.9150 c3        1 VJ6     -0.074900
     35 C23        -3.0380   -5.6810    0.7580 c         1 VJ6      0.632100
     36 C24        -5.9980   -0.9990    0.1440 c         1 VJ6      0.619100
     37 C25        -5.7170   -3.8950    2.6150 c3        1 VJ6     -0.062900
     38 C26        -3.4730   -1.8740    5.4800 c3        1 VJ6     -0.100100
     39 C27         0.0150   -4.8690    2.5090 c3        1 VJ6      0.096700
     40 C28         3.0270    3.6560    2.2590 c3        1 VJ6      0.107700
     41 H1          0.9540   -0.0340   -0.5890 hn        1 VJ6      0.340500
     42 H2         -7.8160   -1.4830   -0.7620 hn        1 VJ6      0.490133
     43 H3         -7.9710   -0.9190    0.8040 hn        1 VJ6      0.490133
     44 H4         -3.0890   -0.9460   -0.9300 ha        1 VJ6      0.126000
     45 H5         -3.1790   -7.2980    2.0500 hn        1 VJ6      0.496800
     46 H6         -4.2030   -6.0190    2.4500 hn        1 VJ6      0.496800
     47 H7         -3.6520   -2.0510   -3.1780 hc        1 VJ6      0.080700
     48 H8         -2.3840   -3.2910   -2.8590 hc        1 VJ6      0.080700
     49 H9         -4.2010   -4.4360   -2.0070 hc        1 VJ6      0.067200
     50 H10        -5.1280   -2.9420   -1.6190 hc        1 VJ6      0.067200
     51 H11        -2.5970   -3.4380    0.0380 h1        1 VJ6      0.127700
     52 H12        -3.7410   -1.6340    0.8960 h1        1 VJ6      0.153700
     53 H13        -2.6550   -2.2080    2.8930 ha        1 VJ6      0.181000
     54 H14        -4.5840   -3.6150    4.9070 hc        1 VJ6      0.074700
     55 H15        -2.3960   -4.0840    6.1960 h1        1 VJ6      0.085700
     56 H16        -0.4760   -4.8810    4.9750 h1        1 VJ6      0.076700
     57 H17        -0.7100   -2.3560    5.7070 h1        1 VJ6      0.058200
     58 H18        -0.8480   -1.9890    3.9090 h1        1 VJ6      0.058200
     59 H19        -3.4410   -6.0970    6.7210 h1        1 VJ6      0.055367
     60 H20        -1.8230   -6.5890    6.0080 h1        1 VJ6      0.055367
     61 H21        -3.3740   -7.3630    5.3930 h1        1 VJ6      0.055367
     62 H22         2.7400   -2.1500    4.9160 h1        1 VJ6      0.077700
     63 H23         1.3660   -1.2880    5.7840 h1        1 VJ6      0.077700
     64 H24         2.7580    0.7490    4.9240 ha        1 VJ6      0.166000
     65 H25         1.6940    2.0200    0.9130 ha        1 VJ6      0.153000
     66 H26         0.6060   -1.9550    2.3130 ha        1 VJ6      0.140000
     67 H27        -0.4030   -3.0190   -2.6630 hc        1 VJ6      0.066367
     68 H28         0.6750   -2.8250   -1.2180 hc        1 VJ6      0.066367
     69 H29         0.5850   -1.5170   -2.4710 hc        1 VJ6      0.066367
     70 H30        -6.5360   -3.2230    2.9760 hc        1 VJ6      0.051700
     71 H31        -5.5260   -4.6530    3.4170 hc        1 VJ6      0.051700
     72 H32        -6.0800   -4.4270    1.7000 hc        1 VJ6      0.051700
     73 H33        -2.5640   -1.2860    5.2060 hc        1 VJ6      0.058033
     74 H34        -4.3690   -1.2310    5.3060 hc        1 VJ6      0.058033
     75 H35        -3.4260   -2.1210    6.5690 hc        1 VJ6      0.058033
     76 H36         0.7990   -4.0820    2.6320 h1        1 VJ6      0.059033
     77 H37        -0.2210   -5.0320    1.4260 h1        1 VJ6      0.059033
     78 H38         0.3490   -5.8200    2.9920 h1        1 VJ6      0.059033
     79 H39         3.5870    3.2620    1.3780 h1        1 VJ6      0.055033
     80 H40         3.6040    4.4750    2.7620 h1        1 VJ6      0.055033
     81 H41         2.0130    4.0140    1.9580 h1        1 VJ6      0.055033
     82 H231       -7.6200    0.1600   -0.4380 hn        1 VJ6      0.490133
     83 H331       -2.5580   -5.8950    2.7670 hn        1 VJ6      0.496800
@<TRIPOS>BOND
     1    1    2 1   
     2    1    3 2   
     3    1    4 1   
     4    2   32 1   
     5    2   41 1   
     6    4    7 2   
     7    4   34 1   
     8    5   36 1   
     9    5   42 1   
    10    5   43 1   
    11    5   82 1   
    12    6   14 1   
    13    6   35 1   
    14    7   10 1   
    15    7   44 1   
    16    8   35 1   
    17    8   45 1   
    18    8   46 1   
    19    8   83 1   
    20    9   16 1   
    21    9   36 1   
    22   10   12 1   
    23   10   47 1   
    24   10   48 1   
    25   11   36 2   
    26   12   14 1   
    27   12   49 1   
    28   12   50 1   
    29   13   23 1   
    30   13   26 1   
    31   14   16 1   
    32   14   51 1   
    33   15   24 1   
    34   15   39 1   
    35   16   18 1   
    36   16   52 1   
    37   17   35 2   
    38   18   20 2   
    39   18   37 1   
    40   19   30 1   
    41   19   40 1   
    42   20   22 1   
    43   20   53 1   
    44   21   25 1   
    45   21   27 1   
    46   22   23 1   
    47   22   38 1   
    48   22   54 1   
    49   23   24 1   
    50   23   55 1   
    51   24   25 1   
    52   24   56 1   
    53   25   57 1   
    54   25   58 1   
    55   26   59 1   
    56   26   60 1   
    57   26   61 1   
    58   27   28 1   
    59   27   62 1   
    60   27   63 1   
    61   28   29 ar  
    62   28   33 ar  
    63   29   30 ar  
    64   29   64 1   
    65   30   31 ar  
    66   31   32 ar  
    67   31   65 1   
    68   32   33 ar  
    69   33   66 1   
    70   34   67 1   
    71   34   68 1   
    72   34   69 1   
    73   37   70 1   
    74   37   71 1   
    75   37   72 1   
    76   38   73 1   
    77   38   74 1   
    78   38   75 1   
    79   39   76 1   
    80   39   77 1   
    81   39   78 1   
    82   40   79 1   
    83   40   80 1   
    84   40   81 1   
@<TRIPOS>SUBSTRUCTURE
     1 VJ6         1 TEMP              0 ****  ****    0 ROOT
