@<TRIPOS>MOLECULE
molecule
   25    26     1     0     0
SMALL
bcc


@<TRIPOS>ATOM
      1 OAA          0.0000     0.0000     0.0000 o          1 VJJ      -0.832300
      2 OAB          1.8880     0.0010    -1.1660 o          1 VJJ      -0.832300
      3 CAC          0.3250    -3.6460     6.5450 ca         1 VJJ      -0.183000
      4 CAD          1.0180    -3.5980     5.3490 ca         1 VJJ      -0.100500
      5 CAE         -0.0490    -2.4740     7.1770 ca         1 VJJ      -0.100500
      6 CAF          4.0360    -0.0000     2.4790 ca         1 VJJ      -0.159000
      7 CAG          1.3400    -2.3790     4.7850 ca         1 VJJ      -0.184500
      8 CAH          0.2710    -1.2530     6.6180 ca         1 VJJ      -0.184500
      9 CAI          3.3460     0.0000     3.6780 ca         1 VJJ      -0.161000
     10 CAJ          3.3500    -0.0000     1.2830 ca         1 VJJ      -0.091000
     11 CAK          1.2580    -0.0010     2.4890 ca         1 VJJ      -0.108000
     12 CAM          1.2150     0.0000     0.0000 c          1 VJJ       0.882200
     13 CAN          0.9670    -1.2020     5.4180 ca         1 VJJ       0.156100
     14 CAO          1.9570    -0.0010     3.6850 ca         1 VJJ       0.046100
     15 CAP          1.9540     0.0000     1.2790 ca         1 VJJ      -0.096600
     16 HAE         -0.5930    -2.5150     8.1140 ha         1 VJJ       0.121500
     17 HAF          5.1200     0.0000     2.4800 ha         1 VJJ       0.111000
     18 HAG          1.8840    -2.3420     3.8490 ha         1 VJJ       0.147000
     19 HAH         -0.0220    -0.3360     7.1140 ha         1 VJJ       0.147000
     20 HAI          3.8900     0.0000     4.6140 ha         1 VJJ       0.116000
     21 HAJ          3.8940     0.0000     0.3460 ha         1 VJJ       0.157000
     22 HAK          0.1750    -0.0010     2.4930 ha         1 VJJ       0.161000
     23 HAC          0.0730    -4.6030     6.9850 ha         1 VJJ       0.116000
     24 OAL          1.2840    -0.0030     4.8650 os         1 VJJ      -0.251200
     25 HAD          1.3100    -4.5170     4.8550 ha         1 VJJ       0.121500
@<TRIPOS>BOND
     1     1    12 1
     2     2    12 1
     3     3     4 ar
     4     3     5 ar
     5     4     7 ar
     6     5     8 ar
     7     6     9 ar
     8     6    10 ar
     9     7    13 ar
    10     8    13 ar
    11     9    14 ar
    12    10    15 ar
    13    11    14 ar
    14    11    15 ar
    15    24    13 1
    16    24    14 1
    17    12    15 1
    18     3    23 1
    19     4    25 1
    20     5    16 1
    21     6    17 1
    22     7    18 1
    23     8    19 1
    24     9    20 1
    25    10    21 1
    26    11    22 1
@<TRIPOS>SUBSTRUCTURE
     1 VJJ         1 TEMP              0 ****  ****    0 ROOT
