@<TRIPOS>MOLECULE
VJJ
   25    24     1     0     0
SMALL
bcc


@<TRIPOS>ATOM
      1 OAA        -0.0350   -2.3100    1.3660 o         1 VJJ     -0.557500
      2 OAB        -0.8580   -0.8590   -0.1220 o         1 VJJ     -0.557500
      3 CAC        -0.6500   -3.0920    5.3740 c1        1 VJJ     -0.059000
      4 CAD         0.2720   -3.1470    4.3000 c3        1 VJJ     -0.129000
      5 CAE        -0.9280   -2.2870    6.4020 c1        1 VJJ     -0.121000
      6 CAF         5.5320    0.8880    3.0940 c1        1 VJJ     -0.073000
      7 CAG         1.4970   -2.3170    4.2770 c2        1 VJJ     -0.202000
      8 CAH        -1.3390   -1.6760    7.3730 c1        1 VJJ     -0.239000
      9 CAI         4.6210    0.7470    4.2030 c3        1 VJJ     -0.189000
     10 CAJ         2.0180   -0.2450    1.8160 c1        1 VJJ     -0.044000
     11 CAK         2.6940   -0.1210    2.8770 c1        1 VJJ     -0.260000
     12 CAM         0.0380   -1.2600    0.6680 c2        1 VJJ      0.370000
     13 CAN         1.8640   -1.4450    5.2220 c2        1 VJJ     -0.061000
     14 CAO         3.3720   -0.0470    3.9980 c2        1 VJJ      0.038000
     15 CAP         1.3000   -0.4080    0.7400 c2        1 VJJ     -0.130000
     16 HAE        -1.7040   -1.1530    8.2150 ha        1 VJJ      0.212000
     17 HAF         5.2100    0.3080    5.0650 hc        1 VJJ      0.151500
     18 HAG         2.0740   -2.4260    3.3400 ha        1 VJJ      0.162000
     19 HAH         1.3380   -1.2700    6.1760 h4        1 VJJ      0.148000
     20 HAI         4.3390    1.7940    4.5290 hc        1 VJJ      0.151500
     21 HAJ         5.2560    0.3970    2.1480 ha        1 VJJ      0.055000
     22 HAK         1.5570    0.0990   -0.2040 ha        1 VJJ      0.134000
     23 HAC        -0.3460   -2.8530    3.3630 hc        1 VJJ      0.197000
     24 OAL         3.0150   -0.6690    5.1960 os        1 VJJ     -0.195000
     25 HAD         0.5500   -4.2260    4.1060 hc        1 VJJ      0.197000
@<TRIPOS>BOND
     1    1   12 1   
     2    2   12 1   
     3    3    4 1   
     4    3    5 1   
     5    4    7 1   
     6    4   23 1   
     7    4   25 1   
     8    5    8 1   
     9    6    9 1   
    10    6   21 1   
    11    7   13 1   
    12    7   18 1   
    13    8   16 1   
    14    9   14 1   
    15    9   17 1   
    16    9   20 1   
    17   10   11 1   
    18   10   15 1   
    19   11   14 1   
    20   12   15 1   
    21   13   19 1   
    22   13   24 1   
    23   14   24 1   
    24   15   22 1   
@<TRIPOS>SUBSTRUCTURE
     1 VJJ         1 TEMP              0 ****  ****    0 ROOT
