@<TRIPOS>MOLECULE
molecule
   47    49     1     0     0
SMALL
bcc


@<TRIPOS>ATOM
      1 C1           1.5300     0.0000     0.0000 c3         1 VJK      -0.098400
      2 C2           0.0000     0.0000     0.0000 c3         1 VJK       0.187200
      3 C3          -0.5110     0.0000     1.4430 c3         1 VJK      -0.107100
      4 C4          -0.5030    -1.2310    -0.7100 c          1 VJK       0.669100
      5 C5          -2.2130    -2.4260    -1.9690 c3         1 VJK       0.066000
      6 C6          -3.6160    -2.1610    -2.5190 c3         1 VJK       0.601900
      7 C7          -0.0850     2.4520    -0.2690 ca         1 VJK       0.739200
      8 C8           0.6850     2.5990     0.8870 ca         1 VJK      -0.471600
      9 C9           1.0650     3.8700     1.2710 ca         1 VJK       0.492200
     10 C10         -0.0510     4.7420    -0.5510 ca         1 VJK       0.828800
     11 C11         -0.4470     5.9270    -1.3420 cc         1 VJK      -0.220000
     12 C12         -1.1990     5.9350    -2.4730 cd         1 VJK      -0.037100
     13 C13         -0.7040     8.0910    -2.0770 ca         1 VJK       0.456800
     14 F2          -4.0810    -3.3030    -3.1780 f          1 VJK      -0.221300
     15 F           -4.4780    -1.8460    -1.4640 f          1 VJK      -0.221300
     16 F1          -3.5690    -1.0900    -3.4190 f          1 VJK      -0.221300
     17 N           -1.7240    -1.2290    -1.2790 ns         1 VJK      -0.589900
     18 O            0.1930    -2.2230    -0.7700 o          1 VJK      -0.584100
     19 C            2.0390     0.1290    -1.4370 c3         1 VJK      -0.090100
     20 N1          -0.4890     1.1960    -0.6910 nu         1 VJK      -0.916900
     21 N3          -0.4320     3.5360    -0.9560 nb         1 VJK      -0.819000
     22 N2           0.6910     4.9080     0.5370 nb         1 VJK      -0.778000
     23 C14         -0.1110     7.3300    -1.0550 ca         1 VJK      -0.185100
     24 C15          0.6200     7.9710    -0.0550 ca         1 VJK      -0.033000
     25 C16          0.7320     9.3480    -0.1120 ca         1 VJK      -0.288300
     26 C17          0.1220    10.0370    -1.1480 ca         1 VJK       0.446200
     27 N5          -0.5650     9.4110    -2.0810 nb         1 VJK      -0.716000
     28 N4          -1.3530     7.2140    -2.9140 na         1 VJK      -0.274100
     29 H1           1.8910    -0.9270     0.4290 hc         1 VJK       0.069200
     30 H2           1.8910     0.8350     0.5880 hc         1 VJK       0.069200
     31 H3           0.3240     0.1340     2.1210 hc         1 VJK       0.054700
     32 H4          -0.9990    -0.9440     1.6530 hc         1 VJK       0.054700
     33 H5          -1.2170     0.8100     1.5760 hc         1 VJK       0.054700
     34 H6          -2.2490    -3.2550    -1.2730 h1         1 VJK       0.091200
     35 H7          -1.5450    -2.6700    -2.7860 h1         1 VJK       0.091200
     36 H8           0.9790     1.7350     1.4700 ha         1 VJK       0.155000
     37 H9           1.6670     4.0170     2.1600 h4         1 VJK       0.027100
     38 H10         -1.6140     5.0570    -2.9520 h4         1 VJK       0.187000
     39 H11         -2.3140    -0.4250    -1.1940 hn         1 VJK       0.330500
     40 H12          1.2050     0.3310    -2.0990 hc         1 VJK       0.040367
     41 H13          2.5210    -0.7940    -1.7340 hc         1 VJK       0.040367
     42 H14          2.7520     0.9430    -1.4960 hc         1 VJK       0.040367
     43 H15         -1.0890     1.1030    -1.4870 hn         1 VJK       0.449800
     44 H16          1.0870     7.4060     0.7430 ha         1 VJK       0.162000
     45 H17          1.2930     9.8830     0.6450 ha         1 VJK       0.138000
     46 H18          0.2110    11.1160    -1.1910 h4         1 VJK       0.023100
     47 H19         -1.8670     7.4790    -3.7310 hn         1 VJK       0.307700
@<TRIPOS>BOND
     1    14     6 1
     2    15     6 1
     3     6    16 1
     4     6     5 1
     5    26    27 ar
     6    26    25 ar
     7    27    13 ar
     8    25    24 ar
     9    13    28 1
    10    13    23 ar
    11    28    12 1
    12     5    17 1
    13    24    23 ar
    14    23    11 1
    15    12    11 2
    16    11    10 1
    17    17     4 1
    18    10    22 ar
    19    10    21 ar
    20    18     4 2
    21    22     9 ar
    22    19     1 1
    23    21     7 ar
    24     4     2 1
    25     9     8 ar
    26     7     8 ar
    27     7    20 1
    28     1     2 1
    29     2    20 1
    30     2     3 1
    31     1    29 1
    32     1    30 1
    33     3    31 1
    34     3    32 1
    35     3    33 1
    36     5    34 1
    37     5    35 1
    38     8    36 1
    39     9    37 1
    40    12    38 1
    41    17    39 1
    42    19    40 1
    43    19    41 1
    44    19    42 1
    45    20    43 1
    46    24    44 1
    47    25    45 1
    48    26    46 1
    49    28    47 1
@<TRIPOS>SUBSTRUCTURE
     1 VJK         1 TEMP              0 ****  ****    0 ROOT
