@<TRIPOS>MOLECULE
VJP
   31    32     1     0     0
SMALL
bcc


@<TRIPOS>ATOM
      1 C            0.0000     0.0000     0.0000 ca         1 VJP       0.087600
      2 N           -0.7010     0.0010    -1.2080 nv         1 VJP      -0.569200
      3 O            1.3890    -0.5490     4.8920 o          1 VJP      -0.566800
      4 S            2.2690    -0.0030     3.9190 sy         1 VJP       1.040900
      5 C1           1.3890     0.0000     0.0000 ca         1 VJP      -0.150000
      6 N1           2.5140     1.5790     4.3450 n          1 VJP      -0.242200
      7 O1           3.5520    -0.5470     3.6390 o          1 VJP      -0.566800
      8 C2           2.0780     0.0000     1.1970 ca         1 VJP       0.012000
      9 C3           1.3860    -0.0020     2.3940 ca         1 VJP      -0.170500
     10 C4           0.0030    -0.0030     2.3980 ca         1 VJP       0.012000
     11 C5          -0.6920     0.0030     1.2050 ca         1 VJP      -0.150000
     12 C6           1.5010     2.2290     5.1670 c3         1 VJP       0.090000
     13 C7           2.0790     3.4730     5.8440 c3         1 VJP      -0.039400
     14 C8           2.7640     4.3390     4.7790 c3         1 VJP      -0.028400
     15 C9           3.9960     3.5890     4.2670 c3         1 VJP      -0.092400
     16 C10          3.6290     2.1740     3.9190 c          1 VJP       0.674500
     17 HN          -0.9510     0.8690    -1.6410 hn         1 VJP       0.278800
     18 HNA         -0.9520    -0.8650    -1.6420 hn         1 VJP       0.278800
     19 H1           1.9310     0.0010    -0.9380 ha         1 VJP       0.115000
     20 H2           3.1610    -0.0000     1.1980 ha         1 VJP       0.128000
     21 H4          -0.5360    -0.0010     3.3380 ha         1 VJP       0.128000
     22 H5          -1.7750     0.0020     1.2080 ha         1 VJP       0.115000
     23 H6           0.6670     2.5200     4.5400 h1         1 VJP       0.030200
     24 H6A          1.1590     1.5370     5.9260 h1         1 VJP       0.030200
     25 H7           1.2790     4.0370     6.3100 hc         1 VJP       0.026200
     26 H7A          2.8040     3.1750     6.5910 hc         1 VJP       0.026200
     27 H8           2.0790     4.5160     3.9590 hc         1 VJP       0.019700
     28 H8A          3.0680     5.2810     5.2180 hc         1 VJP       0.019700
     29 H9           4.3760     4.0870     3.3830 hc         1 VJP       0.043200
     30 H9A          4.7570     3.5820     5.0370 hc         1 VJP       0.043200
     31 O2           4.3830     1.5430     3.2120 o          1 VJP      -0.626500
@<TRIPOS>BOND
     1     1     2 1   
     2     1     5 ar  
     3     1    11 ar  
     4     2    17 1   
     5     2    18 1   
     6     3     4 2   
     7     4     6 1   
     8     4     7 2   
     9     4     9 1   
    10     5     8 ar  
    11     5    19 1   
    12     6    12 1   
    13     6    16 1   
    14     8     9 ar  
    15     8    20 1   
    16     9    10 ar  
    17    10    11 ar  
    18    10    21 1   
    19    11    22 1   
    20    12    13 1   
    21    12    23 1   
    22    12    24 1   
    23    13    14 1   
    24    13    25 1   
    25    13    26 1   
    26    14    15 1   
    27    14    27 1   
    28    14    28 1   
    29    15    16 1   
    30    15    29 1   
    31    15    30 1   
    32    16    31 2   
@<TRIPOS>SUBSTRUCTURE
     1 VJP         1 TEMP              0 ****  ****    0 ROOT
