@<TRIPOS>MOLECULE
molecule
   31    32     1     0     0
SMALL
bcc


@<TRIPOS>ATOM
      1 C            0.0000     0.0000     0.0000 ca         1 VJP       0.222600
      2 N           -0.7010     0.0010    -1.2080 nv         1 VJP      -0.998200
      3 O            1.3890    -0.5490     4.8920 o          1 VJP      -0.612800
      4 S            2.2690    -0.0030     3.9190 sy         1 VJP       1.407900
      5 C1           1.3890     0.0000     0.0000 ca         1 VJP      -0.171500
      6 N1           2.5140     1.5790     4.3450 n          1 VJP      -0.552200
      7 O1           3.5520    -0.5470     3.6390 o          1 VJP      -0.612800
      8 C2           2.0780     0.0000     1.1970 ca         1 VJP      -0.021000
      9 C3           1.3860    -0.0020     2.3940 ca         1 VJP      -0.324500
     10 C4           0.0030    -0.0030     2.3980 ca         1 VJP      -0.021000
     11 C5          -0.6920     0.0030     1.2050 ca         1 VJP      -0.171500
     12 C6           1.5010     2.2290     5.1670 c3         1 VJP       0.094000
     13 C7           2.0790     3.4730     5.8440 c3         1 VJP      -0.092400
     14 C8           2.7640     4.3390     4.7790 c3         1 VJP      -0.087400
     15 C9           3.9960     3.5890     4.2670 c3         1 VJP      -0.149400
     16 C10          3.6290     2.1740     3.9190 c          1 VJP       0.707500
     17 HN          -0.9510     0.8690    -1.6410 hn         1 VJP       0.433800
     18 HNA         -0.9520    -0.8650    -1.6420 hn         1 VJP       0.433800
     19 H1           1.9310     0.0010    -0.9380 ha         1 VJP       0.142500
     20 H2           3.1610    -0.0000     1.1980 ha         1 VJP       0.155500
     21 H4          -0.5360    -0.0010     3.3380 ha         1 VJP       0.155500
     22 H5          -1.7750     0.0020     1.2080 ha         1 VJP       0.142500
     23 H6           0.6670     2.5200     4.5400 h1         1 VJP       0.064200
     24 H6A          1.1590     1.5370     5.9260 h1         1 VJP       0.064200
     25 H7           1.2790     4.0370     6.3100 hc         1 VJP       0.058200
     26 H7A          2.8040     3.1750     6.5910 hc         1 VJP       0.058200
     27 H8           2.0790     4.5160     3.9590 hc         1 VJP       0.052200
     28 H8A          3.0680     5.2810     5.2180 hc         1 VJP       0.052200
     29 H9           4.3760     4.0870     3.3830 hc         1 VJP       0.080200
     30 H9A          4.7570     3.5820     5.0370 hc         1 VJP       0.080200
     31 O2           4.3830     1.5430     3.2120 o          1 VJP      -0.591500
@<TRIPOS>BOND
     1     1     2 1
     2     1     5 ar
     3     1    11 ar
     4     3     4 2
     5     4     6 1
     6     4     7 2
     7     4     9 1
     8     5     8 ar
     9     6    12 1
    10     6    16 1
    11     8     9 ar
    12    31    16 2
    13     9    10 ar
    14    10    11 ar
    15    12    13 1
    16    13    14 1
    17    14    15 1
    18    15    16 1
    19     2    17 1
    20     2    18 1
    21     5    19 1
    22     8    20 1
    23    10    21 1
    24    11    22 1
    25    12    23 1
    26    12    24 1
    27    13    25 1
    28    13    26 1
    29    14    27 1
    30    14    28 1
    31    15    29 1
    32    15    30 1
@<TRIPOS>SUBSTRUCTURE
     1 VJP         1 TEMP              0 ****  ****    0 ROOT
