@<TRIPOS>MOLECULE
VK3
   21    22     1     0     0
SMALL
bcc


@<TRIPOS>ATOM
      1 C1K        -0.0290    0.0110   -0.0420 c         1 VK3      0.565900
      2 O1K        -0.6470    0.0190   -1.1150 o         1 VK3     -0.513100
      3 C2K         1.4440    0.0100   -0.0110 cc        1 VK3     -0.197200
      4 C3K         2.1560    0.0020    1.1280 cd        1 VK3     -0.116400
      5 C4K         1.4930   -0.0080    2.4580 c         1 VK3      0.566900
      6 O4K         2.1520   -0.0150    3.5060 o         1 VK3     -0.512100
      7 C5K         0.0150   -0.0070    2.4650 ca        1 VK3     -0.135600
      8 C6K        -0.6620   -0.0150    3.6890 ca        1 VK3     -0.085000
      9 C7K        -2.0580   -0.0150    3.7220 ca        1 VK3     -0.117000
     10 C8K        -2.7840   -0.0060    2.5330 ca        1 VK3     -0.115000
     11 C9K        -2.1160    0.0020    1.3070 ca        1 VK3     -0.085000
     12 C10        -0.7190    0.0020    1.2650 ca        1 VK3     -0.132600
     13 C11         3.6370    0.0010    1.1430 c3        1 VK3     -0.066900
     14 H2K1        1.9350    0.0170   -1.0000 ha        1 VK3      0.158000
     15 H6K1       -0.0790   -0.0220    4.6250 ha        1 VK3      0.160000
     16 H7K1       -2.5810   -0.0220    4.6900 ha        1 VK3      0.142000
     17 H8K1       -3.8840   -0.0060    2.5570 ha        1 VK3      0.142000
     18 H9K1       -2.6820    0.0090    0.3600 ha        1 VK3      0.160000
     19 H111        4.0090    0.9000    1.6960 hc        1 VK3      0.060033
     20 H112        4.0590    0.0080    0.1100 hc        1 VK3      0.060033
     21 H113        4.0080   -0.9080    1.6830 hc        1 VK3      0.060033
@<TRIPOS>BOND
     1    1    2 2   
     2    1    3 1   
     3    1   12 1   
     4    3    4 2   
     5    3   14 1   
     6    4    5 1   
     7    4   13 1   
     8    5    6 2   
     9    5    7 1   
    10    7    8 ar  
    11    7   12 ar  
    12    8    9 ar  
    13    8   15 1   
    14    9   10 ar  
    15    9   16 1   
    16   10   11 ar  
    17   10   17 1   
    18   11   12 ar  
    19   11   18 1   
    20   13   19 1   
    21   13   20 1   
    22   13   21 1   
@<TRIPOS>SUBSTRUCTURE
     1 VK3         1 TEMP              0 ****  ****    0 ROOT
