@<TRIPOS>MOLECULE
molecule
   21    22     1     0     0
SMALL
bcc


@<TRIPOS>ATOM
      1 C1K          0.0000     0.0000     0.0000 c          1 VK3       0.567900
      2 O1K         -0.6090    -0.0000    -1.0510 o          1 VK3      -0.507100
      3 C2K          1.4750     0.0000     0.0000 cc         1 VK3      -0.195200
      4 C3K          2.1640     0.0000     1.1480 cd         1 VK3      -0.134400
      5 C4K          1.4680    -0.0060     2.4490 c          1 VK3       0.572900
      6 O4K          2.1070    -0.0110     3.4820 o          1 VK3      -0.505100
      7 C5K         -0.0100    -0.0020     2.4900 ca         1 VK3      -0.137600
      8 C6K         -0.6890    -0.0040     3.7020 ca         1 VK3      -0.079000
      9 C7K         -2.0750    -0.0050     3.7140 ca         1 VK3      -0.117000
     10 C8K         -2.7860    -0.0040     2.5300 ca         1 VK3      -0.116000
     11 C9K         -2.1220    -0.0020     1.3130 ca         1 VK3      -0.080000
     12 C10         -0.7330    -0.0020     1.2840 ca         1 VK3      -0.136600
     13 C11          3.6700     0.0010     1.1110 c3         1 VK3      -0.049900
     14 H2K1         2.0080     0.0050    -0.9430 ha         1 VK3       0.158000
     15 H6K1        -0.1370    -0.0050     4.6340 ha         1 VK3       0.156000
     16 H7K1        -2.6050    -0.0070     4.6590 ha         1 VK3       0.139000
     17 H8K1        -3.8690    -0.0050     2.5530 ha         1 VK3       0.139000
     18 H9K1        -2.6850    -0.0010     0.3880 ha         1 VK3       0.157000
     19 H111         4.0060     0.0350     0.0810 hc         1 VK3       0.056033
     20 H112         4.0430     0.8690     1.6410 hc         1 VK3       0.056033
     21 H113         4.0430    -0.8990     1.5830 hc         1 VK3       0.056033
@<TRIPOS>BOND
     1     1     2 2
     2     1     3 1
     3     1    12 1
     4     3     4 2
     5     3    14 1
     6     4     5 1
     7     4    13 1
     8     5     6 2
     9     5     7 1
    10     7     8 ar
    11     7    12 ar
    12     8     9 ar
    13     8    15 1
    14     9    10 ar
    15     9    16 1
    16    10    11 ar
    17    10    17 1
    18    11    12 ar
    19    11    18 1
    20    13    19 1
    21    13    20 1
    22    13    21 1
@<TRIPOS>SUBSTRUCTURE
     1 VK3         1 TEMP              0 ****  ****    0 ROOT
