@<TRIPOS>MOLECULE
VKC
   15    14     1     0     0
SMALL
bcc


@<TRIPOS>ATOM
      1 C           0.1880    0.1750    0.1230 c         1 VKC      0.923600
      2 O           1.1550    0.9690   -0.0160 o         1 VKC     -0.830800
      3 CA         -0.6660    0.2810    1.4160 c3        1 VKC      0.003400
      4 CD          0.5220   -0.2730    4.8330 c3        1 VKC      0.138400
      5 CG         -0.5260    0.0060    3.7600 c3        1 VKC      0.086400
      6 OAD         0.1430   -0.1260    2.5150 os        1 VKC     -0.407600
      7 OE1         1.5900    0.6500    4.7790 oh        1 VKC     -0.625800
      8 OXT        -0.1910   -0.6710   -0.7320 o         1 VKC     -0.830800
      9 HA         -0.9970    1.3420    1.5630 h1        1 VKC      0.005200
     10 HAA        -1.5640   -0.3860    1.3520 h1        1 VKC      0.005200
     11 HD          0.9230   -1.3150    4.7130 h1        1 VKC      0.030700
     12 HDA         0.0750   -0.1530    5.8550 h1        1 VKC      0.030700
     13 HG         -0.9400    1.0430    3.8750 h1        1 VKC      0.017700
     14 HGA        -1.3660   -0.7350    3.8280 h1        1 VKC      0.017700
     15 HOE1        1.8390    0.7360    3.8460 ho        1 VKC      0.436000
@<TRIPOS>BOND
     1    1    2 1   
     2    1    3 1   
     3    1    8 1   
     4    3    6 1   
     5    3    9 1   
     6    3   10 1   
     7    4    5 1   
     8    4    7 1   
     9    4   11 1   
    10    4   12 1   
    11    5    6 1   
    12    5   13 1   
    13    5   14 1   
    14    7   15 1   
@<TRIPOS>SUBSTRUCTURE
     1 VKC         1 TEMP              0 ****  ****    0 ROOT
