@<TRIPOS>MOLECULE
molecule
   15    14     1     0     0
SMALL
bcc


@<TRIPOS>ATOM
      1 C            0.0000     0.0000     0.0000 c          1 VKC       0.896600
      2 O            1.2090     0.0000     0.0000 o          1 VKC      -0.837800
      3 CA          -0.7540     0.0000     1.3050 c3         1 VKC       0.024400
      4 CD           0.6430    -0.0010     4.7620 c3         1 VKC       0.144400
      5 CG          -0.4400    -0.0000     3.6810 c3         1 VKC       0.136400
      6 OAD          0.1750    -0.0000     2.3910 os         1 VKC      -0.386600
      7 OE1          1.3830     1.2200     4.6960 oh         1 VKC      -0.588800
      8 OXT         -0.6710     0.0060    -1.1630 o          1 VKC      -0.837800
      9 HA          -1.3770    -0.8850     1.3630 h1         1 VKC       0.008700
     10 HAA         -1.3770     0.8850     1.3630 h1         1 VKC       0.008700
     11 HD           0.1800    -0.0900     5.7380 h1         1 VKC       0.013200
     12 HDA          1.3130    -0.8370     4.6030 h1         1 VKC       0.013200
     13 HG          -1.0560     0.8840     3.7880 h1         1 VKC       0.012700
     14 HGA         -1.0560    -0.8850     3.7880 h1         1 VKC       0.012700
     15 HOE1         2.0090     1.2480     5.4000 ho         1 VKC       0.380000
@<TRIPOS>BOND
     1     1     2 1
     2     1     3 1
     3     1     8 1
     4     3     6 1
     5     4     5 1
     6     4     7 1
     7     5     6 1
     8     3     9 1
     9     3    10 1
    10     4    11 1
    11     4    12 1
    12     5    13 1
    13     5    14 1
    14     7    15 1
@<TRIPOS>SUBSTRUCTURE
     1 VKC         1 TEMP              0 ****  ****    0 ROOT
