@<TRIPOS>MOLECULE
molecule
   66    69     1     0     0
SMALL
bcc


@<TRIPOS>ATOM
      1 C1           0.0000     0.0000     0.0000 ca         1 VL4      -0.155000
      2 C2           1.3830     0.0000     0.0000 ca         1 VL4      -0.133000
      3 C3          -0.6920    -0.0010     1.1930 ca         1 VL4      -0.117000
      4 C4           2.0810     0.0000     1.1940 ca         1 VL4      -0.142000
      5 C5           3.7930    -3.5270     6.2830 ca         1 VL4      -0.153000
      6 C6           3.7310    -4.8100     6.8000 ca         1 VL4      -0.167000
      7 C7           0.0050     0.0000     2.4020 ca         1 VL4      -0.095600
      8 C8           1.4200    -3.2890     6.5840 ca         1 VL4      -0.041600
      9 C9           1.4010    -0.0000     2.3940 ca         1 VL4      -0.011300
     10 C10          2.6500    -2.7650     6.1730 ca         1 VL4      -0.093300
     11 C11          2.5200    -5.3430     7.2120 ca         1 VL4       0.060100
     12 C12          1.3580    -4.5880     7.1060 ca         1 VL4       0.067100
     13 C15         -0.7310     0.0000     3.6840 c          1 VL4       0.658700
     14 C17          2.2650   -10.7360     8.9280 c          1 VL4       0.892600
     15 C18         -6.1190    -0.9080     5.3170 cy         1 VL4      -0.117400
     16 C19         -5.1710     0.1230     5.9530 cy         1 VL4      -0.089900
     17 C20         -4.9070    -1.4070     4.5120 cy         1 VL4      -0.089900
     18 C21          0.1940    -6.2380     8.3570 c3         1 VL4       0.099400
     19 C22         -4.3120    -0.0000     4.6830 cy         1 VL4      -0.113700
     20 C23          1.2040    -7.2410     7.7800 c3         1 VL4       0.100100
     21 C24          2.1630    -0.0010     3.6940 c3         1 VL4       0.202100
     22 C25          2.7260    -1.3690     5.6110 c3         1 VL4       0.226100
     23 C26          2.9880    -2.2540     3.3730 c3         1 VL4       0.145100
     24 C28         -2.8070     0.0010     4.9590 c3         1 VL4       0.124000
     25 C29          1.2790    -8.4740     8.6820 c3         1 VL4      -0.057400
     26 N30         -2.0780     0.0000     3.6870 ns         1 VL4      -0.586900
     27 N31          2.2030    -1.3650     4.2390 n3         1 VL4      -0.668600
     28 O32         -0.5230    -2.5990     5.4950 o          1 VL4      -0.839800
     29 O33          1.6520   -10.7610     9.9690 o          1 VL4      -0.867300
     30 O34         -0.1200     0.0010     4.7350 o          1 VL4      -0.512100
     31 O35         -0.1290    -1.6020     7.4390 o          1 VL4      -0.839800
     32 O36          3.0130   -11.7890     8.5630 o          1 VL4      -0.867300
     33 O37          0.1600    -5.0930     7.4970 os         1 VL4      -0.298900
     34 O38          2.4850    -6.6040     7.7240 os         1 VL4      -0.325900
     35 H1          -0.5410    -0.0000    -0.9390 ha         1 VL4       0.111000
     36 H2           1.9220     0.0000    -0.9400 ha         1 VL4       0.110000
     37 H3          -1.7760    -0.0000     1.1920 ha         1 VL4       0.120000
     38 H4           3.1640    -0.0000     1.1870 ha         1 VL4       0.124000
     39 H5           4.7440    -3.1190     5.9640 ha         1 VL4       0.101000
     40 H6           4.6350    -5.4010     6.8830 ha         1 VL4       0.120000
     41 H241         3.1740     0.3480     3.5200 h1         1 VL4       0.042700
     42 H242         1.6710     0.6560     4.4010 h1         1 VL4       0.042700
     43 H251         3.7580    -1.0380     5.6050 h1         1 VL4       0.040200
     44 H252         2.1360    -0.7000     6.2250 h1         1 VL4       0.040200
     45 H30         -2.5810    -0.0040     2.8220 hn         1 VL4       0.288500
     46 H271         1.7910    -9.8050     7.0730 hc         1 VL4       0.036700
     47 H272         3.1830    -9.1060     7.9110 hc         1 VL4       0.036700
     48 H181        -6.8830    -0.4550     4.6960 hc         1 VL4       0.039700
     49 H182        -6.4870    -1.6390     6.0260 hc         1 VL4       0.039700
     50 H191        -4.6730    -0.2500     6.8390 hc         1 VL4       0.058950
     51 H192        -5.6230     1.1010     6.0650 hc         1 VL4       0.058950
     52 H201        -5.1500    -1.6420     3.4830 hc         1 VL4       0.058950
     53 H202        -4.3410    -2.1720     5.0300 hc         1 VL4       0.058950
     54 H22         -4.6220     0.6830     3.9010 hc         1 VL4       0.042700
     55 H211        -0.7890    -6.6930     8.3980 h1         1 VL4       0.054700
     56 H212         0.5050    -5.9380     9.3510 h1         1 VL4       0.054700
     57 H23          0.8980    -7.5300     6.7820 h1         1 VL4       0.050700
     58 H281        -2.5440     0.8860     5.5250 h1         1 VL4       0.082700
     59 H282        -2.5440    -0.8830     5.5270 h1         1 VL4       0.082700
     60 H291         0.2860    -8.8890     8.8090 hc         1 VL4       0.054200
     61 H292         1.6790    -8.1910     9.6480 hc         1 VL4       0.054200
     62 H261         3.0600    -3.2330     3.8310 h1         1 VL4       0.024033
     63 H262         2.5010    -2.3410     2.4090 h1         1 VL4       0.024033
     64 H263         3.9820    -1.8430     3.2400 h1         1 VL4       0.024033
     65 C27          2.1910    -9.5210     8.0390 c3         1 VL4      -0.180400
     66 C16          0.1940    -2.4780     6.4670 c          1 VL4       0.909200
@<TRIPOS>BOND
     1     1     2 ar
     2     1     3 ar
     3     2     4 ar
     4     3     7 ar
     5     4     9 ar
     6     5     6 ar
     7     5    10 ar
     8     6    11 ar
     9     7     9 ar
    10     7    13 1
    11     8    10 ar
    12     8    12 ar
    13     8    66 1
    14     9    21 1
    15    10    22 1
    16    11    12 ar
    17    11    34 1
    18    12    33 1
    19    13    26 1
    20    13    30 2
    21    66    28 1
    22    66    31 1
    23    14    65 1
    24    14    29 1
    25    14    32 1
    26    15    16 1
    27    15    17 1
    28    16    19 1
    29    17    19 1
    30    18    20 1
    31    18    33 1
    32    19    24 1
    33    20    25 1
    34    20    34 1
    35    21    27 1
    36    22    27 1
    37    23    27 1
    38    65    25 1
    39    24    26 1
    40     1    35 1
    41     2    36 1
    42     3    37 1
    43     4    38 1
    44     5    39 1
    45     6    40 1
    46    21    41 1
    47    21    42 1
    48    22    43 1
    49    22    44 1
    50    26    45 1
    51    65    46 1
    52    65    47 1
    53    15    48 1
    54    15    49 1
    55    16    50 1
    56    16    51 1
    57    17    52 1
    58    17    53 1
    59    19    54 1
    60    18    55 1
    61    18    56 1
    62    20    57 1
    63    24    58 1
    64    24    59 1
    65    25    60 1
    66    25    61 1
    67    23    62 1
    68    23    63 1
    69    23    64 1
@<TRIPOS>SUBSTRUCTURE
     1 VL4         1 TEMP              0 ****  ****    0 ROOT
