@<TRIPOS>MOLECULE
molecule
   20    21     1     0     0
SMALL
bcc


@<TRIPOS>ATOM
      1 O1A          0.0000     0.0000     0.0000 o          1 VM1      -0.830800
      2 C1B          1.2150     0.0000     0.0000 c          1 VM1       0.883200
      3 O1C          1.8880     0.0000     1.1670 o          1 VM1      -0.830800
      4 S1D         -0.4010    -0.0260    -5.2410 ss         1 VM1      -0.137800
      5 C1E         -0.1840    -0.0350    -6.9850 cc         1 VM1      -0.113100
      6 C1F          1.1200    -0.0360    -7.2780 cd         1 VM1      -0.149000
      7 C1G          1.9540    -0.0070    -1.2790 ca         1 VM1      -0.219900
      8 C1H          1.2660    -0.0130    -2.4950 ca         1 VM1      -0.065000
      9 C1I          2.0140    -0.0180    -3.6760 ca         1 VM1      -0.183300
     10 C1J          1.3390    -0.0250    -4.9920 cc         1 VM1       0.072900
     11 C1K          1.9640    -0.0300    -6.1870 cd         1 VM1      -0.193000
     12 C1L          3.3510    -0.0010    -1.2900 ca         1 VM1       0.446200
     13 N1M          4.0170    -0.0070    -2.4260 nb         1 VM1      -0.727000
     14 C1N          3.4080    -0.0180    -3.5940 ca         1 VM1       0.410200
     15 H1H          0.2120    -0.2620    -2.5200 ha         1 VM1       0.156000
     16 H1K          3.0430    -0.0310    -6.2820 ha         1 VM1       0.144000
     17 H1L          3.8930     0.0080    -0.3530 h4         1 VM1       0.050100
     18 H1N          3.9970    -0.0220    -4.5030 h4         1 VM1       0.000100
     19 H1E         -0.9860    -0.0380    -7.7140 h4         1 VM1       0.156000
     20 H1F          1.4880    -0.0410    -8.2970 ha         1 VM1       0.131000
@<TRIPOS>BOND
     1     2     1 1
     2     7     2 1
     3     2     3 1
     4     5     4 1
     5     4    10 1
     6     5     6 2
     7     5    19 1
     8     6    11 1
     9     6    20 1
    10     8     7 ar
    11    12     7 ar
    12     9     8 ar
    13     8    15 1
    14    10     9 1
    15    14     9 ar
    16    10    11 2
    17    11    16 1
    18    13    12 ar
    19    12    17 1
    20    14    13 ar
    21    14    18 1
@<TRIPOS>SUBSTRUCTURE
     1 VM1         1 TEMP              0 ****  ****    0 ROOT
