@<TRIPOS>MOLECULE
VM2
   44    45     1     0     0
SMALL
bcc


@<TRIPOS>ATOM
      1 C1          0.1080   -0.0070    0.0720 c3        1 VM2     -0.091700
      2 C2          1.6170   -0.1070   -0.1350 c3        1 VM2     -0.077400
      3 C3          2.3450   -0.0800    1.1930 c3        1 VM2     -0.077900
      4 C4          1.8550   -1.1760    2.1140 c3        1 VM2     -0.083400
      5 C5          0.3550   -1.0970    2.3120 c3        1 VM2     -0.077900
      6 C6         -0.3800   -1.1220    0.9860 c3        1 VM2     -0.077400
      7 C2B        -2.9330   -1.3600   -3.0120 c3        1 VM2      0.134100
      8 C3B        -3.9810   -1.2430   -4.1390 c3        1 VM2      0.108100
      9 C4B        -4.7380    0.0860   -3.8940 c3        1 VM2      0.124100
     10 C5B        -4.0390    0.8120   -2.7180 c3        1 VM2     -0.125700
     11 C6B        -4.8980    0.7370   -1.4580 c3        1 VM2      0.127400
     12 O2B        -1.7000   -1.8930   -3.4380 oh        1 VM2     -0.610800
     13 O3B        -4.8370   -2.3570   -4.0030 oh        1 VM2     -0.592800
     14 O4B        -4.6180    0.8440   -5.0790 oh        1 VM2     -0.588800
     15 O6B        -6.1200    1.3740   -1.7810 oh        1 VM2     -0.585800
     16 CAR        -2.6740    0.1110   -2.5920 c3        1 VM2      0.107500
     17 N2B        -2.0190    0.2360   -1.2570 n4        1 VM2     -0.750000
     18 C7B        -0.5560   -0.0730   -1.3050 c3        1 VM2      0.099800
     19 H1         -0.1140    0.9860    0.5570 hc        1 VM2      0.064700
     20 H21C        1.9670    0.7460   -0.7730 hc        1 VM2      0.046200
     21 H22C        1.8560   -1.0610   -0.6760 hc        1 VM2      0.046200
     22 H61C       -0.2150   -2.1140    0.4870 hc        1 VM2      0.046200
     23 H62C       -1.4790   -1.0150    1.1820 hc        1 VM2      0.046200
     24 H7B1       -0.4380   -1.1060   -1.7500 hx        1 VM2      0.118200
     25 H7B2       -0.0720    0.6720   -2.0000 hx        1 VM2      0.118200
     26 H31C        3.4450   -0.2040    1.0100 hc        1 VM2      0.057450
     27 H32C        2.1970    0.9190    1.6830 hc        1 VM2      0.057450
     28 H41C        2.1250   -2.1770    1.6860 hc        1 VM2      0.059200
     29 H42C        2.3660   -1.0870    3.1080 hc        1 VM2      0.059200
     30 H51C        0.0990   -0.1550    2.8650 hc        1 VM2      0.057450
     31 H52C        0.0110   -1.9610    2.9390 hc        1 VM2      0.057450
     32 H2B        -3.3460   -1.9800   -2.1670 h1        1 VM2      0.077700
     33 H3B        -3.4860   -1.2300   -5.1490 h1        1 VM2      0.097700
     34 HA         -1.8880   -2.6990   -3.9400 ho        1 VM2      0.451000
     35 HAR        -1.9660    0.5680   -3.3520 hx        1 VM2      0.135700
     36 H4B        -5.8170   -0.1080   -3.6420 h1        1 VM2      0.095700
     37 HB         -5.4040   -2.3810   -4.7860 ho        1 VM2      0.437000
     38 H5B        -3.8910    1.8940   -2.9890 hc        1 VM2      0.106700
     39 HC         -5.3150    1.5140   -5.0670 ho        1 VM2      0.432000
     40 H6B1       -5.0760   -0.3320   -1.1620 h1        1 VM2      0.024200
     41 H6B2       -4.4130    1.2820   -0.6030 h1        1 VM2      0.024200
     42 H6B        -6.7060    1.2690   -1.0190 ho        1 VM2      0.431000
     43 HD         -2.1500    1.1950   -0.9130 hn        1 VM2      0.446800
     44 H2B2       -2.4730   -0.4040   -0.5940 hn        1 VM2      0.446800
@<TRIPOS>BOND
     1    1    2 1   
     2    1    6 1   
     3    1   18 1   
     4    1   19 1   
     5    2    3 1   
     6    2   20 1   
     7    2   21 1   
     8    3    4 1   
     9    3   26 1   
    10    3   27 1   
    11    4    5 1   
    12    4   28 1   
    13    4   29 1   
    14    5    6 1   
    15    5   30 1   
    16    5   31 1   
    17    6   22 1   
    18    6   23 1   
    19    7    8 1   
    20    7   12 1   
    21    7   16 1   
    22    7   32 1   
    23    8    9 1   
    24    8   13 1   
    25    8   33 1   
    26    9   10 1   
    27    9   14 1   
    28    9   36 1   
    29   10   11 1   
    30   10   16 1   
    31   10   38 1   
    32   11   15 1   
    33   11   40 1   
    34   11   41 1   
    35   12   34 1   
    36   13   37 1   
    37   14   39 1   
    38   15   42 1   
    39   16   17 1   
    40   16   35 1   
    41   17   18 1   
    42   17   43 1   
    43   17   44 1   
    44   18   24 1   
    45   18   25 1   
@<TRIPOS>SUBSTRUCTURE
     1 VM2         1 TEMP              0 ****  ****    0 ROOT
