@<TRIPOS>MOLECULE
molecule
   30    31     1     0     0
SMALL
bcc


@<TRIPOS>ATOM
      1 C            0.0000     0.0000     0.0000 c          1 VM7       0.882200
      2 O            1.2150     0.0000     0.0000 o          1 VM7      -0.834800
      3 C1          -0.7380     0.0000     1.2790 ca         1 VM7      -0.104600
      4 C10          1.3780    -0.0350     4.9920 ca         1 VM7      -0.073000
      5 C11         -2.1420    -0.0010     3.6760 ca         1 VM7      -0.135000
      6 C12         -2.8270     0.0050     2.4760 ca         1 VM7      -0.164000
      7 C13         -2.1360     0.0050     1.2800 ca         1 VM7      -0.080000
      8 C2          -0.0440    -0.0120     2.4880 ca         1 VM7      -0.087000
      9 C3          -0.7480    -0.0120     3.6870 cp         1 VM7      -0.094000
     10 C4          -0.0160    -0.0240     4.9780 cp         1 VM7      -0.015000
     11 C5          -0.7190    -0.0250     6.1800 ca         1 VM7      -0.041000
     12 C6          -0.0330    -0.0360     7.3780 ca         1 VM7      -0.295500
     13 C7          -1.1630    -1.7930     9.2830 c3         1 VM7      -0.230300
     14 C8           1.3500    -0.0470     7.3870 ca         1 VM7      -0.058000
     15 C9           2.0530    -0.0520     6.1950 ca         1 VM7      -0.151000
     16 O1          -0.0240     0.5570     9.8290 o          1 VM7      -0.628800
     17 O2          -2.1610     0.5800     8.5830 o          1 VM7      -0.628800
     18 O3          -0.6720     0.0050    -1.1670 o          1 VM7      -0.834800
     19 S           -0.9210    -0.0370     8.9010 sy         1 VM7       1.193300
     20 H7           1.9300    -0.0390     4.0600 ha         1 VM7       0.156000
     21 H8          -2.6900    -0.0010     4.6100 ha         1 VM7       0.110000
     22 H9          -3.9100     0.0120     2.4730 ha         1 VM7       0.110000
     23 H10         -2.6770     0.0100     0.3420 ha         1 VM7       0.157000
     24 H            1.0390    -0.0210     2.4930 ha         1 VM7       0.146000
     25 H1          -1.8020    -0.0160     6.1760 ha         1 VM7       0.152000
     26 H3          -1.8260    -2.2340     8.5480 h1         1 VM7       0.094367
     27 H4          -1.6020    -1.8910    10.2690 h1         1 VM7       0.094367
     28 H2          -0.2080    -2.3030     9.2600 h1         1 VM7       0.094367
     29 H5           1.8840    -0.0580     8.3290 ha         1 VM7       0.136000
     30 H6           3.1360    -0.0600     6.2070 ha         1 VM7       0.129000
@<TRIPOS>BOND
     1    13    19 1
     2    17    19 2
     3    19    12 1
     4    19    16 2
     5    14    12 ar
     6    14    15 ar
     7    12    11 ar
     8    15     4 ar
     9    11    10 ar
    10     4    10 ar
    11     2     1 1
    12    10     9 1
    13     8     9 ar
    14     8     3 ar
    15     9     5 ar
    16     1     3 1
    17     1    18 1
    18     3     7 ar
    19     5     6 ar
    20     7     6 ar
    21     4    20 1
    22     5    21 1
    23     6    22 1
    24     7    23 1
    25     8    24 1
    26    11    25 1
    27    13    26 1
    28    13    27 1
    29    13    28 1
    30    14    29 1
    31    15    30 1
@<TRIPOS>SUBSTRUCTURE
     1 VM7         1 TEMP              0 ****  ****    0 ROOT
