@<TRIPOS>MOLECULE
VMP
   47    49     1     0     0
SMALL
bcc


@<TRIPOS>ATOM
      1 C10          0.0000     0.0000     0.0000 ca         1 VMP       0.001000
      2 C11          1.4030     0.0000     0.0000 ca         1 VMP      -0.054000
      3 C24          2.1300     0.0000     1.2040 ca         1 VMP      -0.073000
      4 C26          3.4910    -0.0010     1.1690 ca         1 VMP      -0.103000
      5 C27          4.1770    -0.0000    -0.0440 ca         1 VMP      -0.086000
      6 C25          3.5060    -0.0000    -1.2290 ca         1 VMP      -0.097000
      7 C12          2.1020     0.0000    -1.2340 ca         1 VMP      -0.018000
      8 C13          1.3800     0.0010    -2.4430 ca         1 VMP      -0.090000
      9 C14          0.0230     0.0010    -2.4240 ca         1 VMP      -0.092000
     10 C9          -0.6810     0.0010    -1.2060 ca         1 VMP      -0.175600
     11 C8          -2.1580     0.0000    -1.2140 c          1 VMP       0.589700
     12 O8          -2.7710     0.0010    -0.1650 o          1 VMP      -0.551100
     13 N2          -2.8260     0.0000    -2.3850 ns         1 VMP      -0.178500
     14 C7          -4.1730     0.0000    -2.3920 c          1 VMP       0.567100
     15 O7          -4.7860     0.0010    -1.3420 o          1 VMP      -0.611100
     16 N1          -4.8410     0.0010    -3.5630 ns         1 VMP      -0.193900
     17 C1          -6.3060     0.0010    -3.5690 c3         1 VMP       0.235500
     18 O5          -6.7820    -1.3410    -3.6890 os         1 VMP      -0.401600
     19 C5          -8.2060    -1.4580    -3.6800 c3         1 VMP       0.174100
     20 C6          -8.5990    -2.9330    -3.7850 c3         1 VMP       0.225400
     21 O6          -8.1550    -3.6270    -2.6170 oh         1 VMP      -0.575800
     22 C4          -8.7870    -0.6890    -4.8710 c3         1 VMP       0.137100
     23 O4         -10.2140    -0.7570    -4.8330 oh         1 VMP      -0.579800
     24 C3          -8.3410     0.7730    -4.7920 c3         1 VMP       0.149100
     25 O3          -8.8170     1.4810    -5.9380 oh         1 VMP      -0.590800
     26 C2          -6.8100     0.8280    -4.7560 c3         1 VMP       0.130100
     27 O2          -6.3840     2.1840    -4.6090 oh         1 VMP      -0.572800
     28 H10         -0.5460    -0.0010     0.9350 ha         1 VMP       0.132000
     29 H24          1.6090    -0.0000     2.1540 ha         1 VMP       0.111000
     30 H26          4.0490    -0.0010     2.0980 ha         1 VMP       0.104000
     31 H27          5.2600    -0.0010    -0.0440 ha         1 VMP       0.102000
     32 H25          4.0530     0.0000    -2.1640 ha         1 VMP       0.107000
     33 H13          1.9080     0.0010    -3.3890 ha         1 VMP       0.107000
     34 H14         -0.5250     0.0020    -3.3580 ha         1 VMP       0.095000
     35 H2          -2.3210    -0.0210    -3.2490 hn         1 VMP       0.169500
     36 H1          -4.3370    -0.0590    -4.4250 hn         1 VMP       0.161500
     37 HA          -6.6760     0.4330    -2.6470 h2         1 VMP       0.067700
     38 HB          -6.4130     0.4160    -5.6760 h1         1 VMP       0.015700
     39 H5          -8.5950    -1.0400    -2.7590 h1         1 VMP       0.037700
     40 H61C        -8.1360    -3.3690    -4.6620 h1         1 VMP      -0.004800
     41 H62C        -9.6760    -3.0160    -3.8670 h1         1 VMP      -0.004800
     42 H4          -8.4240    -1.1270    -5.7930 h1         1 VMP       0.018700
     43 H6          -8.5100    -4.5010    -2.6170 ho         1 VMP       0.387000
     44 HC         -10.5440    -0.9180    -5.7010 ho         1 VMP       0.398000
     45 H3          -8.7390     1.2230    -3.8910 h1         1 VMP       0.031700
     46 HD          -9.4050     2.1650    -5.6630 ho         1 VMP       0.403000
     47 H2A         -6.0750     2.5080    -5.4380 ho         1 VMP       0.397000
@<TRIPOS>BOND
     1     1     2 ar  
     2     1    10 ar  
     3     1    28 1   
     4     2     3 ar  
     5     2     7 ar  
     6     3     4 ar  
     7     3    29 1   
     8     4     5 ar  
     9     4    30 1   
    10     5     6 ar  
    11     5    31 1   
    12     6     7 ar  
    13     6    32 1   
    14     7     8 ar  
    15     8     9 ar  
    16     8    33 1   
    17     9    10 ar  
    18     9    34 1   
    19    10    11 1   
    20    11    12 2   
    21    11    13 1   
    22    13    14 1   
    23    13    35 1   
    24    14    15 2   
    25    14    16 1   
    26    16    17 1   
    27    16    36 1   
    28    17    18 1   
    29    17    26 1   
    30    17    37 1   
    31    18    19 1   
    32    19    20 1   
    33    19    22 1   
    34    19    39 1   
    35    20    21 1   
    36    20    40 1   
    37    20    41 1   
    38    21    43 1   
    39    22    23 1   
    40    22    24 1   
    41    22    42 1   
    42    23    44 1   
    43    24    25 1   
    44    24    26 1   
    45    24    45 1   
    46    25    46 1   
    47    26    27 1   
    48    26    38 1   
    49    27    47 1   
@<TRIPOS>SUBSTRUCTURE
     1 VMP         1 TEMP              0 ****  ****    0 ROOT
