@<TRIPOS>MOLECULE
molecule
   47    49     1     0     0
SMALL
bcc


@<TRIPOS>ATOM
      1 C10          0.0000     0.0000     0.0000 ca         1 VMP      -0.036000
      2 C11          1.4030     0.0000     0.0000 ca         1 VMP      -0.051000
      3 C24          2.1300     0.0000     1.2040 ca         1 VMP      -0.103000
      4 C26          3.4910    -0.0010     1.1690 ca         1 VMP      -0.128000
      5 C27          4.1770    -0.0000    -0.0440 ca         1 VMP      -0.112000
      6 C25          3.5060    -0.0000    -1.2290 ca         1 VMP      -0.124000
      7 C12          2.1020     0.0000    -1.2340 ca         1 VMP      -0.018000
      8 C13          1.3800     0.0010    -2.4430 ca         1 VMP      -0.120000
      9 C14          0.0230     0.0010    -2.4240 ca         1 VMP      -0.113000
     10 C9          -0.6810     0.0010    -1.2060 ca         1 VMP      -0.158600
     11 C8          -2.1580     0.0000    -1.2140 c          1 VMP       0.676700
     12 O8          -2.7710     0.0010    -0.1650 o          1 VMP      -0.520100
     13 N2          -2.8260     0.0000    -2.3850 ns         1 VMP      -0.589500
     14 C7          -4.1730     0.0000    -2.3920 c          1 VMP       0.780100
     15 O7          -4.7860     0.0010    -1.3420 o          1 VMP      -0.573100
     16 N1          -4.8410     0.0010    -3.5630 ns         1 VMP      -0.578900
     17 C1          -6.3060     0.0010    -3.5690 c3         1 VMP       0.332500
     18 O5          -6.7820    -1.3410    -3.6890 os         1 VMP      -0.420600
     19 C5          -8.2060    -1.4580    -3.6800 c3         1 VMP       0.155100
     20 C6          -8.5990    -2.9330    -3.7850 c3         1 VMP       0.152400
     21 O6          -8.1550    -3.6270    -2.6170 oh         1 VMP      -0.592800
     22 C4          -8.7870    -0.6890    -4.8710 c3         1 VMP       0.100100
     23 O4         -10.2140    -0.7570    -4.8330 oh         1 VMP      -0.599800
     24 C3          -8.3410     0.7730    -4.7920 c3         1 VMP       0.112100
     25 O3          -8.8170     1.4810    -5.9380 oh         1 VMP      -0.607800
     26 C2          -6.8100     0.8280    -4.7560 c3         1 VMP       0.096100
     27 O2          -6.3840     2.1840    -4.6090 oh         1 VMP      -0.589800
     28 H10         -0.5460    -0.0010     0.9350 ha         1 VMP       0.164000
     29 H24          1.6090    -0.0000     2.1540 ha         1 VMP       0.140000
     30 H26          4.0490    -0.0010     2.0980 ha         1 VMP       0.133000
     31 H27          5.2600    -0.0010    -0.0440 ha         1 VMP       0.131000
     32 H25          4.0530     0.0000    -2.1640 ha         1 VMP       0.134000
     33 H13          1.9080     0.0010    -3.3890 ha         1 VMP       0.135000
     34 H14         -0.5250     0.0020    -3.3580 ha         1 VMP       0.118000
     35 H2          -2.3210    -0.0210    -3.2490 hn         1 VMP       0.314500
     36 H1          -4.3370    -0.0590    -4.4250 hn         1 VMP       0.306500
     37 HA          -6.6760     0.4330    -2.6470 h2         1 VMP       0.100700
     38 HB          -6.4130     0.4160    -5.6760 h1         1 VMP       0.049700
     39 H5          -8.5950    -1.0400    -2.7590 h1         1 VMP       0.071700
     40 H61C        -8.1360    -3.3690    -4.6620 h1         1 VMP       0.034200
     41 H62C        -9.6760    -3.0160    -3.8670 h1         1 VMP       0.034200
     42 H4          -8.4240    -1.1270    -5.7930 h1         1 VMP       0.053700
     43 H6          -8.5100    -4.5010    -2.6170 ho         1 VMP       0.402000
     44 HC         -10.5440    -0.9180    -5.7010 ho         1 VMP       0.413000
     45 H3          -8.7390     1.2230    -3.8910 h1         1 VMP       0.067700
     46 HD          -9.4050     2.1650    -5.6630 ho         1 VMP       0.417000
     47 H2A         -6.0750     2.5080    -5.4380 ho         1 VMP       0.411000
@<TRIPOS>BOND
     1     1     2 ar
     2     1    10 ar
     3     2     3 ar
     4     2     7 ar
     5     3     4 ar
     6     4     5 ar
     7     5     6 ar
     8     6     7 ar
     9     7     8 ar
    10     8     9 ar
    11     9    10 ar
    12    10    11 1
    13    11    12 2
    14    11    13 1
    15    13    14 1
    16    14    15 2
    17    14    16 1
    18    16    17 1
    19    17    18 1
    20    17    26 1
    21    18    19 1
    22    19    20 1
    23    19    22 1
    24    20    21 1
    25    22    23 1
    26    22    24 1
    27    24    25 1
    28    24    26 1
    29    26    27 1
    30     1    28 1
    31     3    29 1
    32     4    30 1
    33     5    31 1
    34     6    32 1
    35     8    33 1
    36     9    34 1
    37    13    35 1
    38    16    36 1
    39    17    37 1
    40    26    38 1
    41    19    39 1
    42    20    40 1
    43    20    41 1
    44    22    42 1
    45    21    43 1
    46    23    44 1
    47    24    45 1
    48    25    46 1
    49    27    47 1
@<TRIPOS>SUBSTRUCTURE
     1 VMP         1 TEMP              0 ****  ****    0 ROOT
