@<TRIPOS>MOLECULE
molecule
   48    50     1     0     0
SMALL
bcc


@<TRIPOS>ATOM
      1 S            0.0000     0.0000     0.0000 s6         1 VMX       1.327900
      2 N1           0.5420    -9.4210    -5.2470 nb         1 VMX      -0.766000
      3 C2          -0.4200    -9.3700    -4.3440 ca         1 VMX       0.713900
      4 N3          -0.5810    -8.3380    -3.5420 nb         1 VMX      -0.745000
      5 C4           0.2320    -7.2900    -3.6140 ca         1 VMX       0.454800
      6 C5           1.2720    -7.2970    -4.5590 ca         1 VMX      -0.164200
      7 C6           1.4040    -8.4210    -5.3920 ca         1 VMX       0.782200
      8 N6           2.4090    -8.4850    -6.3410 nv         1 VMX      -1.072500
      9 N7           1.9430    -6.1270    -4.4250 nc         1 VMX      -0.570100
     10 C8           1.3940    -5.4200    -3.4800 cd         1 VMX       0.425700
     11 N9           0.3340    -6.0940    -2.9490 na         1 VMX      -0.263000
     12 C1'         -0.5360    -5.6270    -1.8670 c3         1 VMX       0.266800
     13 C10          2.3240     1.3410     0.5310 c3         1 VMX      -0.084400
     14 C11          3.8540     1.3420     0.5310 c3         1 VMX       0.099800
     15 N12          4.3430     2.6290     1.0410 nz         1 VMX      -0.812600
     16 C1S          1.8140     0.0000     0.0000 c3         1 VMX      -0.244600
     17 C2'         -0.0490    -6.1750    -0.5000 c3         1 VMX       0.100100
     18 O2'         -0.5960    -7.4710    -0.2480 oh         1 VMX      -0.545800
     19 O2S         -0.4990     0.0000     1.3310 o          1 VMX      -0.601800
     20 C3'         -0.6220    -5.1310     0.4890 c3         1 VMX       0.090100
     21 O3'         -1.8460    -5.6000     1.0580 oh         1 VMX      -0.559800
     22 O3S         -0.4990     0.9110    -0.9690 o          1 VMX      -0.601800
     23 C4'         -0.8730    -3.8840    -0.3800 c3         1 VMX       0.113100
     24 O4'         -0.4320    -4.1960    -1.7120 os         1 VMX      -0.426600
     25 C5'         -0.0770    -2.6980     0.1680 c3         1 VMX       0.229800
     26 N5'         -0.4130    -1.4910    -0.5910 n7         1 VMX      -0.898100
     27 HN6          3.2930    -8.8940    -6.1080 hn         1 VMX       0.446800
     28 HN6A         2.2400    -8.1570    -7.2710 hn         1 VMX       0.446800
     29 H1'         -1.5650    -5.9150    -2.0450 h2         1 VMX       0.122700
     30 H10          1.9630     1.4900     1.5420 hc         1 VMX       0.077700
     31 H10A         1.9630     2.1410    -0.1030 hc         1 VMX       0.077700
     32 H11          4.2160     0.5410     1.1650 hx         1 VMX       0.115200
     33 H11A         4.2150     1.1930    -0.4790 hx         1 VMX       0.115200
     34 HN12         4.0100     2.7660     1.9750 hn         1 VMX       0.460800
     35 HN1A         4.0100     3.3680     0.4560 hn         1 VMX       0.460800
     36 H1S          2.1750    -0.1490    -1.0100 h1         1 VMX       0.109200
     37 H1SA         2.1750    -0.8010     0.6340 h1         1 VMX       0.109200
     38 H2'          1.0330    -6.1900    -0.4580 h1         1 VMX       0.056700
     39 HO2'         0.0270    -7.9850     0.2380 ho         1 VMX       0.411000
     40 H3'          0.1020    -4.9110     1.2640 h1         1 VMX       0.042700
     41 HO3'        -1.8310    -5.4670     1.9910 ho         1 VMX       0.411000
     42 H4'         -1.9310    -3.6510    -0.3900 h1         1 VMX       0.096700
     43 H5'         -0.3240    -2.5490     1.2120 h1         1 VMX       0.050700
     44 H5'A         0.9830    -2.9010     0.0730 h1         1 VMX       0.050700
     45 HN5'        -0.9120    -1.5670    -1.4540 hn         1 VMX       0.483800
     46 H2          -1.1010   -10.2080    -4.2590 h5         1 VMX       0.070100
     47 H123         5.3360     2.6780     0.9250 hn         1 VMX       0.460800
     48 H8           1.7290    -4.4400    -3.1630 h5         1 VMX       0.075800
@<TRIPOS>BOND
     1     1    16 1
     2     1    19 2
     3     1    22 2
     4     1    26 1
     5     2     3 ar
     6     2     7 ar
     7     3     4 ar
     8     4     5 ar
     9     5     6 ar
    10     5    11 1
    11     6     7 ar
    12     6     9 1
    13     7     8 1
    14     9    10 2
    15    10    11 1
    16    11    12 1
    17    12    17 1
    18    12    24 1
    19    13    14 1
    20    13    16 1
    21    14    15 1
    22    17    18 1
    23    17    20 1
    24    20    21 1
    25    20    23 1
    26    23    24 1
    27    23    25 1
    28    25    26 1
    29     3    46 1
    30     8    27 1
    31     8    28 1
    32    10    48 1
    33    12    29 1
    34    13    30 1
    35    13    31 1
    36    14    32 1
    37    14    33 1
    38    15    34 1
    39    15    35 1
    40    16    36 1
    41    16    37 1
    42    17    38 1
    43    18    39 1
    44    20    40 1
    45    21    41 1
    46    23    42 1
    47    25    43 1
    48    25    44 1
    49    26    45 1
    50    47    15 1
@<TRIPOS>SUBSTRUCTURE
     1 VMX         1 TEMP              0 ****  ****    0 ROOT
