@<TRIPOS>MOLECULE
VMY
   45    48     1     0     0
SMALL
bcc


@<TRIPOS>ATOM
      1 F1           0.0000     0.0000     0.0000 f          1 VMY      -0.119900
      2 C13          1.3510     0.0000     0.0000 ca         1 VMY       0.160400
      3 C14          2.0430     0.0000     1.2000 ca         1 VMY      -0.147500
      4 C15          3.4250     0.0000     1.2000 ca         1 VMY      -0.036000
      5 C16          4.1170     0.0010     0.0040 ca         1 VMY      -0.147500
      6 C17          3.4270     0.0010    -1.1970 ca         1 VMY       0.160400
      7 F            4.1050     0.0010    -2.3660 f          1 VMY      -0.119900
      8 C12          2.0430    -0.0070    -1.1980 ca         1 VMY      -0.190300
      9 C11          1.2900    -0.0140    -2.5040 c3         1 VMY       0.062600
     10 N4           1.0460     1.3660    -2.9350 na         1 VMY       0.497400
     11 C10          1.3950     1.8980    -4.1240 cc         1 VMY      -0.232300
     12 C9           0.9970     3.1900    -4.1330 cd         1 VMY      -0.329300
     13 N5           0.4060     2.3600    -2.1840 nc         1 VMY      -0.680800
     14 C8           0.3790     3.4590    -2.9010 cd         1 VMY       0.425200
     15 N3          -0.1730     4.6850    -2.5070 nu         1 VMY      -0.286600
     16 C7          -0.1370     5.7710    -3.3710 cc         1 VMY       0.537300
     17 N2           0.3750     5.7840    -4.5680 nd         1 VMY      -0.390000
     18 N1           0.3180     6.8660    -5.2160 nd         1 VMY      -0.208000
     19 S1          -0.7870     7.3800    -3.0470 ss         1 VMY      -0.401800
     20 C6          -0.2440     7.8840    -4.6490 cc         1 VMY       0.316700
     21 C4          -0.4110     9.2550    -5.2520 c3         1 VMY       0.172200
     22 C5          -1.2420     9.1500    -6.5330 c3         1 VMY      -0.029100
     23 O           -1.0790    10.1060    -4.3200 oh         1 VMY      -0.565800
     24 C3           0.9440     9.8280    -5.5770 cc         1 VMY       0.430700
     25 S            2.4260     8.9910    -5.4140 ss         1 VMY      -0.278300
     26 C2           3.2990    10.4080    -5.9940 cc         1 VMY      -0.119400
     27 N            1.1530    11.0200    -6.0240 nd         1 VMY      -0.529000
     28 C1           2.4040    11.3660    -6.2530 cd         1 VMY       0.318600
     29 C            2.7930    12.7270    -6.7690 c3         1 VMY      -0.013400
     30 H14          1.5010    -0.0010     2.1380 ha         1 VMY       0.125500
     31 H15          3.9660     0.0000     2.1380 ha         1 VMY       0.112000
     32 H16          5.2010     0.0010     0.0050 ha         1 VMY       0.125500
     33 H111         0.3440    -0.5240    -2.3730 h1         1 VMY       0.043700
     34 H112         1.8770    -0.5280    -3.2560 h1         1 VMY       0.043700
     35 H10          1.9040     1.3830    -4.9300 h4         1 VMY       0.149000
     36 H9           1.1310     3.8940    -4.9460 ha         1 VMY       0.186000
     37 H3          -0.5700     4.7850    -1.5940 hn         1 VMY       0.291800
     38 H51C        -2.0820     8.4880    -6.3650 hc         1 VMY       0.024033
     39 H52C        -1.6050    10.1330    -6.8080 hc         1 VMY       0.024033
     40 H53C        -0.6260     8.7560    -7.3320 hc         1 VMY       0.024033
     41 H           -1.9730     9.8230    -4.2210 ho         1 VMY       0.399000
     42 H2           4.3730    10.4890    -6.1170 h4         1 VMY       0.160000
     43 HC1          3.6610    12.6350    -7.4110 hc         1 VMY       0.011700
     44 HC2          3.0290    13.3760    -5.9350 hc         1 VMY       0.011700
     45 HC3          1.9700    13.1490    -7.3330 hc         1 VMY       0.011700
@<TRIPOS>BOND
     1     1     2 1   
     2     2     3 ar  
     3     2     8 ar  
     4     3     4 ar  
     5     3    30 1   
     6     4     5 ar  
     7     4    31 1   
     8     5     6 ar  
     9     5    32 1   
    10     6     7 1   
    11     6     8 ar  
    12     8     9 1   
    13     9    10 1   
    14     9    33 1   
    15     9    34 1   
    16    10    11 1   
    17    10    13 1   
    18    11    12 2   
    19    11    35 1   
    20    12    14 1   
    21    12    36 1   
    22    13    14 2   
    23    14    15 1   
    24    15    16 1   
    25    15    37 1   
    26    16    17 2   
    27    16    19 1   
    28    17    18 1   
    29    18    20 2   
    30    19    20 1   
    31    20    21 1   
    32    21    22 1   
    33    21    23 1   
    34    21    24 1   
    35    22    38 1   
    36    22    39 1   
    37    22    40 1   
    38    23    41 1   
    39    24    25 1   
    40    24    27 2   
    41    25    26 1   
    42    26    28 2   
    43    26    42 1   
    44    27    28 1   
    45    28    29 1   
    46    29    43 1   
    47    29    44 1   
    48    29    45 1   
@<TRIPOS>SUBSTRUCTURE
     1 VMY         1 TEMP              0 ****  ****    0 ROOT
