@<TRIPOS>MOLECULE
VNF
   49    52     1     0     0
SMALL
bcc


@<TRIPOS>ATOM
      1 OAA          0.0000     0.0000     0.0000 o          1 VNF      -0.638100
      2 CAC          0.1400    -4.0130    -3.4920 ca         1 VNF      -0.091000
      3 CAD         -0.7680    -2.9920    -3.7000 ca         1 VNF      -0.096500
      4 CAE          1.3760    -3.7360    -2.9380 ca         1 VNF      -0.096500
      5 CAF          3.1710     3.8590    -2.4670 cc         1 VNF       0.334200
      6 CAG         -0.4400    -1.6940    -3.3580 ca         1 VNF      -0.083500
      7 CAH          1.7040    -2.4380    -2.5950 ca         1 VNF      -0.083500
      8 CAI          6.6230    -0.0250     5.6660 ca         1 VNF      -0.095500
      9 CAJ          4.6440    -0.0260     7.0250 ca         1 VNF      -0.095500
     10 CAK          1.2570     0.0040     2.4890 ca         1 VNF      -0.053500
     11 CAL          3.3520     0.0020     1.2780 ca         1 VNF      -0.053500
     12 CAM          5.8470    -0.0220     4.5250 ca         1 VNF      -0.087500
     13 CAN          3.8590    -0.0110     5.8900 ca         1 VNF      -0.087500
     14 CAO          1.9470     0.0000     3.6800 ca         1 VNF      -0.113500
     15 CAP          4.0400    -0.0080     2.4700 ca         1 VNF      -0.113500
     16 CAQ          3.3240     2.5210    -2.4960 cd         1 VNF      -0.445600
     17 CAR          1.5250     3.0690    -3.6150 cd         1 VNF       0.230400
     18 CAS          2.0320     0.6090    -3.5330 c3         1 VNF      -0.052700
     19 NAT          2.0640     4.1660    -3.1580 nc         1 VNF      -0.617000
     20 CAV          1.2160     0.0000     0.0000 c          1 VNF       0.606700
     21 CAW          6.0240    -0.0280     6.9140 ca         1 VNF      -0.032600
     22 CAX          1.9550     0.0020     1.2780 ca         1 VNF      -0.158600
     23 CAY          4.4570    -0.0150     4.6310 cp         1 VNF      -0.034000
     24 CAZ          3.3430    -0.0060     3.6790 cp         1 VNF      -0.007000
     25 CBA          0.7970    -1.4160    -2.8090 ca         1 VNF      -0.119300
     26 CBB          1.1560    -0.0000    -2.4360 c3         1 VNF       0.068000
     27 NBC          2.2820     2.0200    -3.2300 na         1 VNF       0.279100
     28 HAD         -1.7380    -3.2100    -4.1330 ha         1 VNF       0.105000
     29 HAE          2.0870    -4.5370    -2.7730 ha         1 VNF       0.105000
     30 HAF          3.8260     4.5630    -1.9690 h4         1 VNF       0.002100
     31 HAG         -1.1510    -0.8930    -3.5230 ha         1 VNF       0.104000
     32 HAH          2.6730    -2.2210    -2.1630 ha         1 VNF       0.104000
     33 HAI          7.7030    -0.0300     5.5850 ha         1 VNF       0.116000
     34 HAJ          4.1800    -0.0230     8.0040 ha         1 VNF       0.116000
     35 HAK          0.1740     0.0060     2.4910 ha         1 VNF       0.113000
     36 HAL          3.8940     0.0010     0.3400 ha         1 VNF       0.113000
     37 HAM          6.3170    -0.0220     3.5490 ha         1 VNF       0.116500
     38 HAN          2.7790    -0.0080     5.9770 ha         1 VNF       0.116500
     39 HAO          1.4070     0.0020     4.6190 ha         1 VNF       0.119000
     40 HAP          5.1230    -0.0100     2.4700 ha         1 VNF       0.119000
     41 HAQ          4.1210     1.9520    -2.0330 h4         1 VNF       0.147000
     42 HAR          0.6220     3.0110    -4.2110 h5         1 VNF       0.023100
     43 HAS          2.9750     0.0770    -3.5790 h1         1 VNF       0.044700
     44 HASA         1.5250     0.5280    -4.4870 h1         1 VNF       0.044700
     45 HBB          0.2510     0.5860    -2.3300 h1         1 VNF       0.072700
     46 ClAB         7.0070    -0.0340     8.3450 cl         1 VNF      -0.024400
     47 NAU          1.8890    -0.0000    -1.1680 ns         1 VNF      -0.206900
     48 HAC         -0.1170    -5.0300    -3.7610 ha         1 VNF       0.104000
     49 HNAU         2.8890    -0.0370    -1.1680 hn         1 VNF       0.182500
@<TRIPOS>BOND
     1     1    20 2   
     2     2     3 ar  
     3     2     4 ar  
     4     2    48 1   
     5     3     6 ar  
     6     3    28 1   
     7     4     7 ar  
     8     4    29 1   
     9     5    16 2   
    10     5    19 1   
    11     5    30 1   
    12     6    25 ar  
    13     6    31 1   
    14     7    25 ar  
    15     7    32 1   
    16     8    12 ar  
    17     8    21 ar  
    18     8    33 1   
    19     9    13 ar  
    20     9    21 ar  
    21     9    34 1   
    22    10    14 ar  
    23    10    22 ar  
    24    10    35 1   
    25    11    15 ar  
    26    11    22 ar  
    27    11    36 1   
    28    12    23 ar  
    29    12    37 1   
    30    13    23 ar  
    31    13    38 1   
    32    14    24 ar  
    33    14    39 1   
    34    15    24 ar  
    35    15    40 1   
    36    16    27 1   
    37    16    41 1   
    38    17    19 2   
    39    17    27 1   
    40    17    42 1   
    41    18    26 1   
    42    18    27 1   
    43    18    43 1   
    44    18    44 1   
    45    20    22 1   
    46    20    47 1   
    47    21    46 1   
    48    23    24 1   
    49    25    26 1   
    50    26    45 1   
    51    26    47 1   
    52    47    49 1   
@<TRIPOS>SUBSTRUCTURE
     1 VNF         1 TEMP              0 ****  ****    0 ROOT
