@<TRIPOS>MOLECULE
molecule
   49    52     1     0     0
SMALL
bcc


@<TRIPOS>ATOM
      1 OAA          0.0000     0.0000     0.0000 o          1 VNF      -0.599100
      2 CAC          0.1400    -4.0130    -3.4920 ca         1 VNF      -0.120000
      3 CAD         -0.7680    -2.9920    -3.7000 ca         1 VNF      -0.126000
      4 CAE          1.3760    -3.7360    -2.9380 ca         1 VNF      -0.126000
      5 CAF          3.1710     3.8590    -2.4670 cc         1 VNF       0.318200
      6 CAG         -0.4400    -1.6940    -3.3580 ca         1 VNF      -0.110000
      7 CAH          1.7040    -2.4380    -2.5950 ca         1 VNF      -0.110000
      8 CAI          6.6230    -0.0250     5.6660 ca         1 VNF      -0.120000
      9 CAJ          4.6440    -0.0260     7.0250 ca         1 VNF      -0.120000
     10 CAK          1.2570     0.0040     2.4890 ca         1 VNF      -0.083000
     11 CAL          3.3520     0.0020     1.2780 ca         1 VNF      -0.083000
     12 CAM          5.8470    -0.0220     4.5250 ca         1 VNF      -0.108500
     13 CAN          3.8590    -0.0110     5.8900 ca         1 VNF      -0.108500
     14 CAO          1.9470     0.0000     3.6800 ca         1 VNF      -0.129500
     15 CAP          4.0400    -0.0080     2.4700 ca         1 VNF      -0.129500
     16 CAQ          3.3240     2.5210    -2.4960 cd         1 VNF      -0.283600
     17 CAR          1.5250     3.0690    -3.6150 cd         1 VNF       0.399400
     18 CAS          2.0320     0.6090    -3.5330 c3         1 VNF       0.033300
     19 NAT          2.0640     4.1660    -3.1580 nc         1 VNF      -0.693000
     20 CAV          1.2160     0.0000     0.0000 c          1 VNF       0.680700
     21 CAW          6.0240    -0.0280     6.9140 ca         1 VNF       0.032400
     22 CAX          1.9550     0.0020     1.2780 ca         1 VNF      -0.143600
     23 CAY          4.4570    -0.0150     4.6310 cp         1 VNF      -0.039000
     24 CAZ          3.3430    -0.0060     3.6790 cp         1 VNF      -0.015000
     25 CBA          0.7970    -1.4160    -2.8090 ca         1 VNF      -0.111300
     26 CBB          1.1560    -0.0000    -2.4360 c3         1 VNF       0.150000
     27 NBC          2.2820     2.0200    -3.2300 na         1 VNF      -0.190900
     28 HAD         -1.7380    -3.2100    -4.1330 ha         1 VNF       0.133000
     29 HAE          2.0870    -4.5370    -2.7730 ha         1 VNF       0.133000
     30 HAF          3.8260     4.5630    -1.9690 h4         1 VNF       0.041100
     31 HAG         -1.1510    -0.8930    -3.5230 ha         1 VNF       0.129500
     32 HAH          2.6730    -2.2210    -2.1630 ha         1 VNF       0.129500
     33 HAI          7.7030    -0.0300     5.5850 ha         1 VNF       0.146500
     34 HAJ          4.1800    -0.0230     8.0040 ha         1 VNF       0.146500
     35 HAK          0.1740     0.0060     2.4910 ha         1 VNF       0.141000
     36 HAL          3.8940     0.0010     0.3400 ha         1 VNF       0.141000
     37 HAM          6.3170    -0.0220     3.5490 ha         1 VNF       0.141000
     38 HAN          2.7790    -0.0080     5.9770 ha         1 VNF       0.141000
     39 HAO          1.4070     0.0020     4.6190 ha         1 VNF       0.140500
     40 HAP          5.1230    -0.0100     2.4700 ha         1 VNF       0.140500
     41 HAQ          4.1210     1.9520    -2.0330 h4         1 VNF       0.165000
     42 HAR          0.6220     3.0110    -4.2110 h5         1 VNF       0.064100
     43 HAS          2.9750     0.0770    -3.5790 h1         1 VNF       0.072200
     44 HASA         1.5250     0.5280    -4.4870 h1         1 VNF       0.072200
     45 HBB          0.2510     0.5860    -2.3300 h1         1 VNF       0.099700
     46 ClAB         7.0070    -0.0340     8.3450 cl         1 VNF      -0.106400
     47 NAU          1.8890    -0.0000    -1.1680 ns         1 VNF      -0.578900
     48 HAC         -0.1170    -5.0300    -3.7610 ha         1 VNF       0.132000
     49 HNAU         2.8890    -0.0370    -1.1680 hn         1 VNF       0.313500
@<TRIPOS>BOND
     1    20     1 2
     2    46    21 1
     3     4     2 ar
     4     3     2 ar
     5     2    48 1
     6     6     3 ar
     7     3    28 1
     8     7     4 ar
     9     4    29 1
    10    19     5 1
    11     5    16 2
    12     5    30 1
    13    25     6 ar
    14     6    31 1
    15    25     7 ar
    16     7    32 1
    17    21     8 ar
    18     8    12 ar
    19     8    33 1
    20    21     9 ar
    21     9    13 ar
    22     9    34 1
    23    14    10 ar
    24    10    22 ar
    25    10    35 1
    26    15    11 ar
    27    22    11 ar
    28    11    36 1
    29    12    23 ar
    30    12    37 1
    31    13    23 ar
    32    13    38 1
    33    14    24 ar
    34    14    39 1
    35    24    15 ar
    36    15    40 1
    37    16    27 1
    38    16    41 1
    39    19    17 2
    40    17    27 1
    41    17    42 1
    42    27    18 1
    43    26    18 1
    44    18    43 1
    45    18    44 1
    46    47    26 1
    47    47    20 1
    48    47    49 1
    49    22    20 1
    50    23    24 1
    51    26    25 1
    52    26    45 1
@<TRIPOS>SUBSTRUCTURE
     1 VNF         1 TEMP              0 ****  ****    0 ROOT
