@<TRIPOS>MOLECULE
VNI
   55    59     1     0     0
SMALL
bcc


@<TRIPOS>ATOM
      1 O1          0.5290   -1.8700    0.0950 o         1 VNI     -0.416100
      2 C1          1.5980   -1.2850    0.0040 c         1 VNI      0.577700
      3 N1          2.2300   -0.8410    1.3170 n4        1 VNI     -0.679800
      4 C2          1.2380   -0.2450    2.2850 c3        1 VNI      0.152800
      5 C3          1.6920   -0.4080    3.7700 c3        1 VNI      0.031300
      6 N2          1.9860   -1.7440    4.1510 na        1 VNI     -0.257900
      7 C4          3.2400   -2.3780    4.0280 cc        1 VNI     -0.324600
      8 C5          3.0410   -3.7100    4.4190 cd        1 VNI      0.350200
      9 N3          1.7000   -3.9150    4.7610 nd        1 VNI     -0.635000
     10 C6          1.0820   -2.7340    4.5920 cc        1 VNI      0.425400
     11 C7          1.0170    1.2100    2.0000 ca        1 VNI     -0.175300
     12 C8          2.0850    2.1120    2.1210 ca        1 VNI     -0.110000
     13 C9          1.9080    3.4700    1.8870 ca        1 VNI     -0.114000
     14 C10         0.6400    3.9500    1.5290 ca        1 VNI      0.057400
     15 CL1         0.4130    5.5980    1.2460 cl        1 VNI     -0.017400
     16 C11        -0.4380    3.0680    1.4070 ca        1 VNI     -0.115000
     17 C12        -0.2480    1.7010    1.6390 ca        1 VNI      0.053400
     18 CL2        -1.5880    0.6740    1.4780 cl        1 VNI     -0.041400
     19 C13         2.3480   -0.9530   -1.2080 ca        1 VNI     -0.203600
     20 C14         3.7480   -0.8620   -1.2380 ca        1 VNI     -0.069500
     21 C15         4.4000   -0.5610   -2.4270 ca        1 VNI     -0.103500
     22 C16         3.6570   -0.3480   -3.6040 ca        1 VNI     -0.025500
     23 C17         2.2590   -0.4560   -3.5760 ca        1 VNI     -0.103500
     24 C18         1.6060   -0.7620   -2.3860 ca        1 VNI     -0.069500
     25 C19         4.3470   -0.0250   -4.8290 cc        1 VNI      0.429900
     26 N4          5.6570    0.1860   -5.1040 nd        1 VNI     -0.287000
     27 N5          5.7960    0.4530   -6.3800 nd        1 VNI     -0.348000
     28 C20         4.5750    0.4240   -6.9820 cc        1 VNI      0.580900
     29 O2          3.6020    0.1190   -6.0170 os        1 VNI     -0.379800
     30 C21         4.1620    0.6390   -8.3490 ca        1 VNI     -0.174500
     31 C22         5.1250    0.9570   -9.3210 ca        1 VNI     -0.074500
     32 C23         4.7290    1.1630  -10.6410 ca        1 VNI     -0.136500
     33 C24         3.3840    1.0550  -10.9970 ca        1 VNI     -0.083000
     34 C25         2.4260    0.7390  -10.0310 ca        1 VNI     -0.136500
     35 C26         2.8090    0.5300   -8.7090 ca        1 VNI     -0.074500
     36 HN1         2.9580   -0.1470    1.1160 hn        1 VNI      0.459800
     37 H2          0.2730   -0.8310    2.1460 hx        1 VNI      0.142700
     38 H3          0.8350   -0.0170    4.3940 h1        1 VNI      0.101200
     39 H3A         2.5940    0.2420    3.9610 h1        1 VNI      0.101200
     40 H4          4.1500   -1.8330    3.7880 h4        1 VNI      0.176000
     41 H5          3.7700   -4.5200    4.4800 h4        1 VNI      0.065100
     42 H6          0.0230   -2.5260    4.7860 h5        1 VNI      0.079100
     43 H8          3.0830    1.7540    2.4220 ha        1 VNI      0.134000
     44 H9          2.7570    4.1660    1.9900 ha        1 VNI      0.175000
     45 H11        -1.4380    3.4480    1.1320 ha        1 VNI      0.187000
     46 H14         4.3590   -1.0590   -0.3440 ha        1 VNI      0.150500
     47 H15         5.5020   -0.4970   -2.4510 ha        1 VNI      0.183000
     48 H17         1.6780   -0.3030   -4.5020 ha        1 VNI      0.183000
     49 H18         0.5070   -0.8600   -2.3670 ha        1 VNI      0.150500
     50 H22         6.1890    1.0420   -9.0440 ha        1 VNI      0.152500
     51 H23         5.4830    1.4110  -11.4030 ha        1 VNI      0.149500
     52 H24         3.0770    1.2180  -12.0420 ha        1 VNI      0.149000
     53 H25         1.3660    0.6530  -10.3140 ha        1 VNI      0.149500
     54 H26         2.0570    0.2800   -7.9460 ha        1 VNI      0.152500
     55 H12         2.6700   -1.6690    1.7450 hn        1 VNI      0.459800
@<TRIPOS>BOND
     1    1    2 2
     2    2    3 1
     3    2   19 1
     4    3    4 1
     5    3   36 1
     6    3   55 1
     7    4    5 1
     8    4   11 1
     9    4   37 1
    10    5    6 1
    11    5   38 1
    12    5   39 1
    13    6    7 1
    14    6   10 1
    15    7    8 2
    16    7   40 1
    17    8    9 1
    18    8   41 1
    19    9   10 2
    20   10   42 1
    21   11   12 ar
    22   11   17 ar
    23   12   13 ar
    24   12   43 1
    25   13   14 ar
    26   13   44 1
    27   14   15 1
    28   14   16 ar
    29   16   17 ar
    30   16   45 1
    31   17   18 1
    32   19   20 ar
    33   19   24 ar
    34   20   21 ar
    35   20   46 1
    36   21   22 ar
    37   21   47 1
    38   22   23 ar
    39   22   25 1
    40   23   24 ar
    41   23   48 1
    42   24   49 1
    43   25   26 2
    44   25   29 1
    45   26   27 1
    46   27   28 2
    47   28   29 1
    48   28   30 1
    49   30   31 ar
    50   30   35 ar
    51   31   32 ar
    52   31   50 1
    53   32   33 ar
    54   32   51 1
    55   33   34 ar
    56   33   52 1
    57   34   35 ar
    58   34   53 1
    59   35   54 1
@<TRIPOS>SUBSTRUCTURE
     1 VNI         1 TEMP              0 ****  ****    0 ROOT
