@<TRIPOS>MOLECULE
VNJ
   19    19     1     0     0
SMALL
bcc


@<TRIPOS>ATOM
      1 CAH          0.0000     0.0000     0.0000 c3         1 VNJ      -0.093100
      2 CAG          1.5080     0.0000     0.0000 c          1 VNJ       0.638700
      3 OAI          2.1150     0.0000     1.0500 o          1 VNJ      -0.582100
      4 CAA          2.2410    -0.0000    -1.2700 ca         1 VNJ      -0.250600
      5 CAB          1.5510    -0.1200    -2.4830 ca         1 VNJ      -0.033000
      6 CAC          2.2460    -0.1190    -3.6710 ca         1 VNJ      -0.156000
      7 CAD          3.6270     0.0010    -3.6750 ca         1 VNJ      -0.039000
      8 CAE          4.3240     0.1200    -2.4910 ca         1 VNJ      -0.172000
      9 CAF          3.6420     0.1270    -1.2790 ca         1 VNJ       0.108600
     10 NAJ          4.3390     0.2530    -0.0870 nv         1 VNJ      -0.478200
     11 HAH1        -0.3610     0.8480    -0.5690 hc         1 VNJ       0.025033
     12 HAH2        -0.3610    -0.9170    -0.4490 hc         1 VNJ       0.025033
     13 HAH3        -0.3610     0.0690     1.0190 hc         1 VNJ       0.025033
     14 HAB          0.4710    -0.2150    -2.4860 ha         1 VNJ       0.104000
     15 HAC          1.7100    -0.2120    -4.6080 ha         1 VNJ       0.106000
     16 HAD          4.1640    -0.0020    -4.6160 ha         1 VNJ       0.098000
     17 HAE          5.4030     0.2160    -2.5050 ha         1 VNJ       0.112000
     18 HAJ1         4.0790     0.9600     0.5720 hn         1 VNJ       0.281300
     19 HAJ2         5.0960    -0.3690     0.1170 hn         1 VNJ       0.281300
@<TRIPOS>BOND
     1     1     2 1   
     2     1    11 1   
     3     1    12 1   
     4     1    13 1   
     5     2     3 2   
     6     2     4 1   
     7     4     5 ar  
     8     4     9 ar  
     9     5     6 ar  
    10     5    14 1   
    11     6     7 ar  
    12     6    15 1   
    13     7     8 ar  
    14     7    16 1   
    15     8     9 ar  
    16     8    17 1   
    17     9    10 1   
    18    10    18 1   
    19    10    19 1   
@<TRIPOS>SUBSTRUCTURE
     1 VNJ         1 TEMP              0 ****  ****    0 ROOT
