@<TRIPOS>MOLECULE
molecule
   19    19     1     0     0
SMALL
bcc


@<TRIPOS>ATOM
      1 CAH          0.0000     0.0000     0.0000 c3         1 VNJ      -0.192100
      2 CAG          1.5080     0.0000     0.0000 c          1 VNJ       0.583700
      3 OAI          2.1150     0.0000     1.0500 o          1 VNJ      -0.541100
      4 CAA          2.2410    -0.0000    -1.2700 ca         1 VNJ      -0.234600
      5 CAB          1.5510    -0.1200    -2.4830 ca         1 VNJ      -0.067000
      6 CAC          2.2460    -0.1190    -3.6710 ca         1 VNJ      -0.177000
      7 CAD          3.6270     0.0010    -3.6750 ca         1 VNJ      -0.075000
      8 CAE          4.3240     0.1200    -2.4910 ca         1 VNJ      -0.192000
      9 CAF          3.6420     0.1270    -1.2790 ca         1 VNJ       0.244600
     10 NAJ          4.3390     0.2530    -0.0870 nv         1 VNJ      -0.938200
     11 HAH1        -0.3610     0.8480    -0.5690 hc         1 VNJ       0.059700
     12 HAH2        -0.3610    -0.9170    -0.4490 hc         1 VNJ       0.059700
     13 HAH3        -0.3610     0.0690     1.0190 hc         1 VNJ       0.059700
     14 HAB          0.4710    -0.2150    -2.4860 ha         1 VNJ       0.131000
     15 HAC          1.7100    -0.2120    -4.6080 ha         1 VNJ       0.131000
     16 HAD          4.1640    -0.0020    -4.6160 ha         1 VNJ       0.130000
     17 HAE          5.4030     0.2160    -2.5050 ha         1 VNJ       0.137000
     18 HAJ1         4.0790     0.9600     0.5720 hn         1 VNJ       0.440300
     19 HAJ2         5.0960    -0.3690     0.1170 hn         1 VNJ       0.440300
@<TRIPOS>BOND
     1     1     2 1
     2     2     3 2
     3     2     4 1
     4     4     5 ar
     5     4     9 ar
     6     5     6 ar
     7     6     7 ar
     8     7     8 ar
     9     8     9 ar
    10     9    10 1
    11     1    11 1
    12     1    12 1
    13     1    13 1
    14     5    14 1
    15     6    15 1
    16     7    16 1
    17     8    17 1
    18    10    18 1
    19    10    19 1
@<TRIPOS>SUBSTRUCTURE
     1 VNJ         1 TEMP              0 ****  ****    0 ROOT
