@<TRIPOS>MOLECULE
VNK
   88    87     1     0     0
SMALL
bcc


@<TRIPOS>ATOM
      1 C27          0.0000     0.0000     0.0000 c3         1 VNK      -0.095400
      2 C1           1.5070     0.0000     0.0000 c          1 VNK       0.572100
      3 O1           2.1130     0.0000     1.0500 o          1 VNK      -0.654100
      4 C28         -0.5100    -0.0000     1.4430 c3         1 VNK      -0.016400
      5 C29         -2.0410     0.0000     1.4430 c3         1 VNK      -0.032400
      6 C30         -2.5500    -0.0000     2.8850 c3         1 VNK      -0.026400
      7 C31         -4.0800    -0.0010     2.8850 c3         1 VNK       0.005900
      8 N1           2.1800    -0.0000    -1.1670 ns         1 VNK      -0.182900
      9 C2           3.6450    -0.0000    -1.1680 c3         1 VNK      -0.050300
     10 C5           4.1480     0.6010    -2.4560 c          1 VNK       0.570100
     11 O3           3.4090     0.6830    -3.4140 o          1 VNK      -0.680100
     12 C3           4.1550    -1.4370    -1.0420 c3         1 VNK      -0.058700
     13 C26          5.6820    -1.4290    -0.9340 c3         1 VNK      -0.013600
     14 C4           3.5590    -2.0830     0.2100 c3         1 VNK      -0.013600
     15 C10          7.4400     1.3810    -3.8380 c          1 VNK       0.566100
     16 C9           3.6760     4.5740    -4.3080 c          1 VNK       0.585100
     17 N2           5.4160     1.0470    -2.5410 ns         1 VNK      -0.157900
     18 O7           4.5440     5.4200    -4.3470 o          1 VNK      -0.657100
     19 N5           2.3820     4.9290    -4.4350 n          1 VNK      -0.165800
     20 C24          1.3350     3.9060    -4.3920 c3         1 VNK       0.089300
     21 C25          2.0240     6.3380    -4.6150 c3         1 VNK       0.089300
     22 C6           5.9400     1.5240    -3.8240 c3         1 VNK      -0.062300
     23 C7           5.5660     2.9950    -4.0130 c3         1 VNK      -0.025400
     24 N3           8.1430     1.7590    -4.9240 ns         1 VNK      -0.159900
     25 C11          9.5870     1.5200    -4.9820 c3         1 VNK      -0.010300
     26 C12          9.8510     0.1370    -5.5780 c3         1 VNK      -0.048400
     27 C13         11.3490    -0.1710    -5.5100 c3         1 VNK      -0.055700
     28 C15         11.7800    -0.2830    -4.0470 c3         1 VNK       0.001400
     29 C14         11.6310    -1.4920    -6.2280 c3         1 VNK       0.001400
     30 C16         10.2460     2.5870    -5.8590 c3         1 VNK       0.173100
     31 O6           9.6990     2.5240    -7.1780 oh         1 VNK      -0.592800
     32 C17          9.9820     3.9720    -5.2640 c3         1 VNK      -0.082700
     33 C23         10.5660     4.0400    -3.8520 c3         1 VNK       0.002900
     34 C18         10.6400     5.0380    -6.1400 c3         1 VNK       0.002900
     35 H22         -0.3610    -0.8840    -0.5110 hc         1 VNK       0.027200
     36 H23         -0.3610     0.8850    -0.5100 hc         1 VNK       0.027200
     37 H24         -0.1490     0.8840     1.9540 hc         1 VNK       0.029700
     38 H25         -0.1490    -0.8850     1.9530 hc         1 VNK       0.029700
     39 H26         -2.4020    -0.8840     0.9320 hc         1 VNK       0.011200
     40 H27         -2.4010     0.8850     0.9320 hc         1 VNK       0.011200
     41 H28         -2.1880    -0.8850     3.3960 hc         1 VNK       0.014700
     42 H29         -2.1890     0.8840     3.3960 hc         1 VNK       0.014700
     43 H30         -4.4410     0.8840     2.3740 hc         1 VNK      -0.000300
     44 H31         -4.4410    -0.0000     3.9070 hc         1 VNK      -0.000300
     45 H32         -4.4410    -0.8850     2.3750 hc         1 VNK      -0.000300
     46 H21          1.6800    -0.0180    -2.0340 hn         1 VNK       0.196500
     47 H13          4.0060     0.5860    -0.3310 h1         1 VNK       0.067700
     48 H14          3.8580    -2.0030    -1.9170 hc         1 VNK       0.031700
     49 H15          5.9990    -0.5620    -0.3670 hc         1 VNK       0.015033
     50 H16          6.1140    -1.3890    -1.9260 hc         1 VNK       0.015033
     51 H17          6.0130    -2.3300    -0.4310 hc         1 VNK       0.015033
     52 H18          4.0460    -3.0320     0.3940 hc         1 VNK       0.015033
     53 H19          3.7100    -1.4290     1.0600 hc         1 VNK       0.015033
     54 H20          2.4980    -2.2440     0.0620 hc         1 VNK       0.015033
     55 H7           3.5840     2.7480    -3.2170 hc         1 VNK       0.053200
     56 H8           3.6940     2.5510    -4.9720 hc         1 VNK       0.053200
     57 H12          5.9880     1.0900    -1.7200 hn         1 VNK       0.209500
     58 H4           1.5520     3.1360    -5.1230 h1         1 VNK       0.010033
     59 H5           0.3770     4.3590    -4.6190 h1         1 VNK       0.010033
     60 H6           1.3000     3.4650    -3.4030 h1         1 VNK       0.010033
     61 H1           0.9460     6.4380    -4.6250 h1         1 VNK       0.010033
     62 H2           2.4340     6.9210    -3.7990 h1         1 VNK       0.010033
     63 H3           2.4290     6.6960    -5.5530 h1         1 VNK       0.010033
     64 H11          5.5140     0.9370    -4.6280 h1         1 VNK       0.065700
     65 H9           6.0260     3.3720    -4.9180 hc         1 VNK       0.036700
     66 H10          5.9160     3.5690    -3.1630 hc         1 VNK       0.036700
     67 H33          7.6670     2.1370    -5.7190 hn         1 VNK       0.192500
     68 H34         10.0010     1.5680    -3.9820 h1         1 VNK       0.080700
     69 H35          9.3040    -0.6090    -5.0140 hc         1 VNK       0.031200
     70 H36          9.5260     0.1200    -6.6110 hc         1 VNK       0.031200
     71 H37         11.9040     0.6270    -5.9900 hc         1 VNK       0.022700
     72 H38         11.9890     0.7050    -3.6550 hc         1 VNK       0.006033
     73 H39         10.9850    -0.7390    -3.4700 hc         1 VNK       0.006033
     74 H40         12.6720    -0.8940    -3.9790 hc         1 VNK       0.006033
     75 H41         11.1260    -2.2990    -5.7100 hc         1 VNK       0.006033
     76 H42         11.2680    -1.4340    -7.2470 hc         1 VNK       0.006033
     77 H43         12.6980    -1.6790    -6.2350 hc         1 VNK       0.006033
     78 H44         11.3140     2.4100    -5.9020 h1         1 VNK       0.022700
     79 H45         10.3940     2.5950    -7.8110 ho         1 VNK       0.397000
     80 H46          8.9140     4.1490    -5.2210 hc         1 VNK       0.041700
     81 H47          9.9000     3.5380    -3.1600 hc         1 VNK       0.007200
     82 H48         11.5340     3.5540    -3.8370 hc         1 VNK       0.007200
     83 H49         10.6780     5.0760    -3.5570 hc         1 VNK       0.007200
     84 H50         11.6670     4.7570    -6.3410 hc         1 VNK       0.007200
     85 H51         10.6200     5.9910    -5.6250 hc         1 VNK       0.007200
     86 H52         10.0990     5.1220    -7.0750 hc         1 VNK       0.007200
     87 O2           8.0150     0.9260    -2.8730 o          1 VNK      -0.664100
     88 C8           4.0450     3.1240    -4.1220 c3         1 VNK      -0.120400
@<TRIPOS>BOND
     1     1     2 1   
     2     1     4 1   
     3     1    35 1   
     4     1    36 1   
     5     2     3 2   
     6     2     8 1   
     7     4     5 1   
     8     4    37 1   
     9     4    38 1   
    10     5     6 1   
    11     5    39 1   
    12     5    40 1   
    13     6     7 1   
    14     6    41 1   
    15     6    42 1   
    16     7    43 1   
    17     7    44 1   
    18     7    45 1   
    19     8     9 1   
    20     8    46 1   
    21     9    10 1   
    22     9    12 1   
    23     9    47 1   
    24    10    11 2   
    25    10    17 1   
    26    12    13 1   
    27    12    14 1   
    28    12    48 1   
    29    13    49 1   
    30    13    50 1   
    31    13    51 1   
    32    14    52 1   
    33    14    53 1   
    34    14    54 1   
    35    15    22 1   
    36    15    24 1   
    37    15    87 2   
    38    16    18 2   
    39    16    19 1   
    40    16    88 1   
    41    17    22 1   
    42    17    57 1   
    43    19    20 1   
    44    19    21 1   
    45    20    58 1   
    46    20    59 1   
    47    20    60 1   
    48    21    61 1   
    49    21    62 1   
    50    21    63 1   
    51    22    23 1   
    52    22    64 1   
    53    23    65 1   
    54    23    66 1   
    55    23    88 1   
    56    24    25 1   
    57    24    67 1   
    58    25    26 1   
    59    25    30 1   
    60    25    68 1   
    61    26    27 1   
    62    26    69 1   
    63    26    70 1   
    64    27    28 1   
    65    27    29 1   
    66    27    71 1   
    67    28    72 1   
    68    28    73 1   
    69    28    74 1   
    70    29    75 1   
    71    29    76 1   
    72    29    77 1   
    73    30    31 1   
    74    30    32 1   
    75    30    78 1   
    76    31    79 1   
    77    32    33 1   
    78    32    34 1   
    79    32    80 1   
    80    33    81 1   
    81    33    82 1   
    82    33    83 1   
    83    34    84 1   
    84    34    85 1   
    85    34    86 1   
    86    55    88 1   
    87    56    88 1   
@<TRIPOS>SUBSTRUCTURE
     1 VNK         1 TEMP              0 ****  ****    0 ROOT
