@<TRIPOS>MOLECULE
VNL
   19    19     1     0     0
SMALL
bcc


@<TRIPOS>ATOM
      1 C1          0.0190   -0.0140   -0.0790 ca        1 VNL     -0.128600
      2 CO1         1.4140    0.0840   -0.0640 ca        1 VNL     -0.103000
      3 CO2        -0.6780   -0.1530    1.1230 ca        1 VNL     -0.131000
      4 CM1         2.1230    0.0500    1.1340 ca        1 VNL     -0.166000
      5 CM2         0.0210   -0.1880    2.3310 ca        1 VNL      0.004100
      6 OM         -0.5730   -0.3470    3.5830 os        1 VNL     -0.368900
      7 CZ          1.4270   -0.0820    2.3420 ca        1 VNL      0.075100
      8 CC         -0.7470    0.0340   -1.3930 c         1 VNL      0.910200
      9 CV         -1.9680   -0.0820    3.6180 c3        1 VNL      0.126700
     10 O1         -0.0830    0.1370   -2.4630 o         1 VNL     -0.831800
     11 O2         -2.0080   -0.0300   -1.3430 o         1 VNL     -0.831800
     12 O3          2.1700   -0.1170    3.5080 oh        1 VNL     -0.521100
     13 HO1         1.9380    0.1900   -1.0280 ha        1 VNL      0.155000
     14 HO2        -1.7760   -0.2300    1.0810 ha        1 VNL      0.160000
     15 HM1         3.2180    0.1270    1.1530 ha        1 VNL      0.126000
     16 HV1        -2.2010    0.9100    3.1600 h1        1 VNL      0.035700
     17 HV2        -2.2160   -0.0860    4.7090 h1        1 VNL      0.035700
     18 HV3        -2.5280   -0.8910    3.0870 h1        1 VNL      0.035700
     19 HO3         1.5450   -0.1520    4.2450 ho        1 VNL      0.418000
@<TRIPOS>BOND
     1    1    2 ar  
     2    1    3 ar  
     3    1    8 1   
     4    2    4 ar  
     5    2   13 1   
     6    3    5 ar  
     7    3   14 1   
     8    4    7 ar  
     9    4   15 1   
    10    5    6 1   
    11    5    7 ar  
    12    6    9 1   
    13    7   12 1   
    14    8   10 1   
    15    8   11 1   
    16    9   16 1   
    17    9   17 1   
    18    9   18 1   
    19   12   19 1   
@<TRIPOS>SUBSTRUCTURE
     1 VNL         1 TEMP              0 ****  ****    0 ROOT
