@<TRIPOS>MOLECULE
molecule
   19    19     1     0     0
SMALL
bcc


@<TRIPOS>ATOM
      1 C1           0.0000     0.0000     0.0000 ca         1 VNL      -0.093600
      2 CO1          1.3990     0.0000     0.0000 ca         1 VNL      -0.125000
      3 CO2         -0.6950    -0.0010     1.2150 ca         1 VNL      -0.180000
      4 CM1          2.0880     0.0000     1.1920 ca         1 VNL      -0.163000
      5 CM2          0.0010    -0.0010     2.4050 ca         1 VNL       0.089100
      6 OM          -0.6710    -0.0020     3.5880 os         1 VNL      -0.338900
      7 CZ           1.3960    -0.0010     2.3970 ca         1 VNL       0.038100
      8 CC          -0.7380     0.0060    -1.2740 c          1 VNL       0.911200
      9 CV          -2.0980    -0.0020     3.5220 c3         1 VNL       0.128700
     10 O1          -0.1290     0.0100    -2.3340 o          1 VNL      -0.831800
     11 O2          -1.9620     0.0060    -1.2720 o          1 VNL      -0.831800
     12 O3           2.0810    -0.0010     3.5700 oh         1 VNL      -0.521100
     13 HO1          1.9410     0.0010    -0.9380 ha         1 VNL       0.150000
     14 HO2         -1.7780    -0.0010     1.2200 ha         1 VNL       0.156000
     15 HM1          3.1710     0.0000     1.1910 ha         1 VNL       0.115000
     16 HV1         -2.4350    -0.8870     2.9960 h1         1 VNL       0.034033
     17 HV2         -2.4360     0.8820     2.9950 h1         1 VNL       0.034033
     18 HV3         -2.5060    -0.0020     4.5260 h1         1 VNL       0.034033
     19 HO3          2.4560    -0.8540     3.7150 ho         1 VNL       0.393000
@<TRIPOS>BOND
     1     1     2 ar
     2     1     3 ar
     3     1     8 1
     4     2     4 ar
     5     2    13 1
     6     3     5 ar
     7     3    14 1
     8     4     7 ar
     9     4    15 1
    10     5     6 1
    11     5     7 ar
    12     6     9 1
    13     7    12 1
    14     8    10 1
    15     8    11 1
    16     9    16 1
    17     9    17 1
    18     9    18 1
    19    12    19 1
@<TRIPOS>SUBSTRUCTURE
     1 VNL         1 TEMP              0 ****  ****    0 ROOT
