@<TRIPOS>MOLECULE
molecule
   43    44     1     0     0
SMALL
bcc


@<TRIPOS>ATOM
      1 O2G          0.0000     0.0000     0.0000 o          1 VNP      -0.619167
      2 PG           1.6100     0.0000     0.0000 p5         1 VNP       1.148800
      3 O3G          2.1040     0.0000     1.3960 o          1 VNP      -0.619167
      4 O1G          2.1460    -1.3160    -0.7580 o          1 VNP      -0.619167
      5 N3B          2.1720     1.3730    -0.7940 n7         1 VNP      -0.908400
      6 PB           1.6330     2.7740    -0.0320 p5         1 VNP       1.248700
      7 O2B          2.1270     2.7960     1.3640 o          1 VNP      -0.778500
      8 O1B          0.0230     2.7990    -0.0310 o          1 VNP      -0.778500
      9 O1           2.1910     4.0610    -0.8190 os         1 VNP      -0.586200
     10 C7           3.5690     4.4390    -0.8180 c3         1 VNP       0.214400
     11 C12          3.7530     5.7030    -1.6600 c3         1 VNP      -0.000100
     12 C11          5.2070     6.1010    -1.6590 cc         1 VNP      -0.091400
     13 C10          6.1320     5.7000    -2.5350 cd         1 VNP      -0.076600
     14 CM4          5.8240     4.7650    -3.6760 c3         1 VNP      -0.032800
     15 S1           5.9840     7.1830    -0.5050 ss         1 VNP      -0.135800
     16 C9           7.4780     6.9820    -1.3120 cc         1 VNP      -0.330400
     17 N5           7.3370     6.1890    -2.3200 na         1 VNP       0.049900
     18 C7A          8.4660     5.8480    -3.1880 c3         1 VNP       0.094600
     19 C5A          8.4770     6.7680    -4.3830 ca         1 VNP      -0.387900
     20 C6A          7.8820     6.3930    -5.5710 ca         1 VNP       0.468200
     21 N1A          7.9100     7.2280    -6.6000 nb         1 VNP      -0.752000
     22 C2A          8.4950     8.4050    -6.5030 ca         1 VNP       0.675300
     23 CM2          8.5010     9.3190    -7.7010 c3         1 VNP      -0.117400
     24 N3A          9.0740     8.8040    -5.3890 nb         1 VNP      -0.774000
     25 C4A          9.0830     8.0240    -4.3120 ca         1 VNP       0.725200
     26 N4A          9.6900     8.4490    -3.1410 nv         1 VNP      -1.068500
     27 H3B          2.2990     1.3610    -1.7870 hn         1 VNP       0.381800
     28 H71          4.1640     3.6360    -1.2360 h1         1 VNP       0.025700
     29 H72          3.8880     4.6330     0.1990 h1         1 VNP       0.025700
     30 H121         3.1590     6.5060    -1.2420 hc         1 VNP       0.050700
     31 H122         3.4330     5.5090    -2.6770 hc         1 VNP       0.050700
     32 HM41         4.9190     4.2120    -3.4550 hc         1 VNP       0.051700
     33 HM42         5.6830     5.3380    -4.5840 hc         1 VNP       0.051700
     34 HM43         6.6470     4.0730    -3.8080 hc         1 VNP       0.051700
     35 H9           8.4090     7.4550    -1.0200 h5         1 VNP       0.171000
     36 H7A1         8.3680     4.8230    -3.5230 h1         1 VNP       0.062700
     37 H7A2         9.3920     5.9610    -2.6370 h1         1 VNP       0.062700
     38 H6A          7.3990     5.4280    -5.6610 h4         1 VNP       0.034100
     39 HM21         8.1340     8.7820    -8.5670 hc         1 VNP       0.051367
     40 HM22         7.8620    10.1720    -7.5080 hc         1 VNP       0.051367
     41 HM23         9.5120     9.6610    -7.8890 hc         1 VNP       0.051367
     42 H4A1         9.2880     9.1990    -2.6140 hn         1 VNP       0.437800
     43 H4A2        10.5560     8.0400    -2.8500 hn         1 VNP       0.437800
@<TRIPOS>BOND
     1     1     2 1
     2     2     3 1
     3     2     4 1
     4     2     5 1
     5     5     6 1
     6     5    27 1
     7     6     7 1
     8     6     8 1
     9     6     9 1
    10     9    10 1
    11    10    11 1
    12    10    28 1
    13    10    29 1
    14    11    12 1
    15    11    30 1
    16    11    31 1
    17    12    13 2
    18    12    15 1
    19    13    14 1
    20    13    17 1
    21    14    32 1
    22    14    33 1
    23    14    34 1
    24    15    16 1
    25    16    17 2
    26    16    35 1
    27    17    18 1
    28    18    19 1
    29    18    36 1
    30    18    37 1
    31    19    20 ar
    32    19    25 ar
    33    20    21 ar
    34    20    38 1
    35    21    22 ar
    36    22    23 1
    37    22    24 ar
    38    23    39 1
    39    23    40 1
    40    23    41 1
    41    24    25 ar
    42    25    26 1
    43    26    42 1
    44    26    43 1
@<TRIPOS>SUBSTRUCTURE
     1 VNP         1 TEMP              0 ****  ****    0 ROOT
