@<TRIPOS>MOLECULE
VNT
   54    58     1     0     0
SMALL
bcc


@<TRIPOS>ATOM
      1 CBA         0.3210   -0.5510    0.1650 ca        1 VNT      0.054400
      2 CAQ         1.6940   -0.3060    0.0470 ca        1 VNT     -0.116000
      3 CAZ         2.3290    0.5470    0.9550 ca        1 VNT      0.058400
      4 CAI         1.5940    1.1580    1.9820 ca        1 VNT     -0.115000
      5 CAN         0.2310    0.9120    2.0880 ca        1 VNT     -0.108000
      6 CBE        -0.4240    0.0620    1.1860 ca        1 VNT     -0.187300
      7 CBH        -1.9030   -0.1630    1.3130 c3        1 VNT      0.164800
      8 CAR        -2.6380    1.1940    1.1490 c3        1 VNT      0.051300
      9 NBI        -4.0700    1.1080    1.2550 na        1 VNT     -0.104400
     10 NAT        -4.7210    0.6800    2.3630 nc        1 VNT     -0.616800
     11 CAO        -6.0360    0.8970    2.0970 cd        1 VNT      0.569900
     12 NAS        -6.2490    1.4750    0.8280 nd        1 VNT     -0.653000
     13 CAP        -5.0110    1.6040    0.3180 cc        1 VNT      0.457400
     14 NAW        -2.2130   -0.8330    2.6280 n4        1 VNT     -0.670800
     15 CAY        -3.3500   -1.8490    2.5880 c         1 VNT      0.596700
     16 OAA        -3.7660   -2.1760    1.4900 o         1 VNT     -0.414100
     17 CBB        -3.7440   -2.3550    3.9070 ca        1 VNT     -0.202600
     18 CAJ        -3.9820   -3.7350    4.0270 ca        1 VNT     -0.072500
     19 CAL        -4.3750   -4.2650    5.2510 ca        1 VNT     -0.104000
     20 CAK        -3.9360   -1.5080    5.0070 ca        1 VNT     -0.072500
     21 CAM        -4.3340   -2.0380    6.2290 ca        1 VNT     -0.104000
     22 CBD        -4.5470   -3.4220    6.3600 ca        1 VNT     -0.033500
     23 CBG        -4.9470   -3.9610    7.6380 cc        1 VNT      0.434900
     24 OAX        -5.2170   -5.3410    7.7440 os        1 VNT     -0.381800
     25 NAV        -5.1340   -3.3820    8.8480 nd        1 VNT     -0.290000
     26 NAU        -5.5020   -4.2960    9.7150 nd        1 VNT     -0.348000
     27 CBF        -5.5690   -5.5050    9.0940 cc        1 VNT      0.575900
     28 CBC        -5.9190   -6.8240    9.5700 ca        1 VNT     -0.171500
     29 CAG        -6.2620   -7.0030   10.9190 ca        1 VNT     -0.075500
     30 CAE        -6.6010   -8.2740   11.3790 ca        1 VNT     -0.136500
     31 CAD        -6.6000   -9.3630   10.5070 ca        1 VNT     -0.085000
     32 CAF        -6.2590   -9.1840    9.1640 ca        1 VNT     -0.136500
     33 CAH        -5.9180   -7.9200    8.6920 ca        1 VNT     -0.075500
     34 CLC        -0.4010   -1.5980   -0.9570 cl        1 VNT     -0.041400
     35 CLB         3.9830    0.8420    0.8140 cl        1 VNT     -0.016400
     36 H1          2.2720   -0.7850   -0.7630 ha        1 VNT      0.187000
     37 H2          2.0940    1.8330    2.6970 ha        1 VNT      0.175000
     38 H3         -0.3380    1.4080    2.8920 ha        1 VNT      0.138000
     39 H4         -2.2630   -0.8680    0.4950 hx        1 VNT      0.148700
     40 H5         -2.3820    1.5760    0.1180 h1        1 VNT      0.096700
     41 H6         -2.2430    1.9310    1.9100 h1        1 VNT      0.096700
     42 H7         -6.8600    0.6560    2.7810 h5        1 VNT      0.091100
     43 H8         -4.7370    2.0130   -0.6620 h5        1 VNT      0.090100
     44 H9         -1.3730   -1.3320    2.9460 hn        1 VNT      0.460800
     45 H10        -3.8650   -4.3940    3.1510 ha        1 VNT      0.156000
     46 H11        -4.5590   -5.3480    5.3520 ha        1 VNT      0.181500
     47 H12        -3.8220   -0.4150    4.9160 ha        1 VNT      0.156000
     48 H13        -4.4910   -1.3700    7.0940 ha        1 VNT      0.181500
     49 H14        -6.2650   -6.1460   11.6120 ha        1 VNT      0.152000
     50 H15        -6.8700   -8.4160   12.4380 ha        1 VNT      0.149000
     51 H16        -6.8690  -10.3640   10.8760 ha        1 VNT      0.148000
     52 H17        -6.2600  -10.0430    8.4770 ha        1 VNT      0.149000
     53 H18        -5.6500   -7.7750    7.6340 ha        1 VNT      0.152000
     54 HAW2       -2.4420   -0.1200    3.3310 hn        1 VNT      0.460800
@<TRIPOS>BOND
     1    1    2 ar
     2    1    6 ar
     3    1   34 1
     4    2    3 ar
     5    2   36 1
     6    3    4 ar
     7    3   35 1
     8    4    5 ar
     9    4   37 1
    10    5    6 ar
    11    5   38 1
    12    6    7 1
    13    7    8 1
    14    7   14 1
    15    7   39 1
    16    8    9 1
    17    8   40 1
    18    8   41 1
    19    9   10 1
    20    9   13 1
    21   10   11 2
    22   11   12 1
    23   11   42 1
    24   12   13 2
    25   13   43 1
    26   14   15 1
    27   14   44 1
    28   14   54 1
    29   15   16 2
    30   15   17 1
    31   17   18 ar
    32   17   20 ar
    33   18   19 ar
    34   18   45 1
    35   19   22 ar
    36   19   46 1
    37   20   21 ar
    38   20   47 1
    39   21   22 ar
    40   21   48 1
    41   22   23 1
    42   23   24 1
    43   23   25 2
    44   24   27 1
    45   25   26 1
    46   26   27 2
    47   27   28 1
    48   28   29 ar
    49   28   33 ar
    50   29   30 ar
    51   29   49 1
    52   30   31 ar
    53   30   50 1
    54   31   32 ar
    55   31   51 1
    56   32   33 ar
    57   32   52 1
    58   33   53 1
@<TRIPOS>SUBSTRUCTURE
     1 VNT         1 TEMP              0 ****  ****    0 ROOT
