@<TRIPOS>MOLECULE
molecule
   50    52     1     0     0
SMALL
bcc


@<TRIPOS>ATOM
      1 O6           0.0000     0.0000     0.0000 oh         1 VNY      -0.607800
      2 C6           1.4290     0.0000     0.0000 c3         1 VNY       0.148400
      3 C5           1.9390     0.0000     1.4420 c3         1 VNY       0.133100
      4 O5           1.5620    -1.2190     2.0830 os         1 VNY      -0.410600
      5 C4           3.4660     0.1250     1.4430 c3         1 VNY       0.124100
      6 O4           3.8440     1.3710     0.8560 oh         1 VNY      -0.603800
      7 C3           3.9740     0.0640     2.8870 c3         1 VNY       0.137100
      8 O3           5.4030     0.1050     2.8930 oh         1 VNY      -0.600800
      9 C2           3.4960    -1.2420     3.5310 c3         1 VNY       0.134100
     10 O2           4.0640    -2.3520     2.8350 oh         1 VNY      -0.587800
     11 C1           1.9690    -1.3120     3.4490 c3         1 VNY       0.104300
     12 C7           1.3710    -0.1710     4.2300 c2         1 VNY      -0.542200
     13 C8           0.4690    -0.4130     5.1720 ce         1 VNY       0.111600
     14 C21         -0.0590    -1.8110     5.3680 c3         1 VNY      -0.127900
     15 C9          -0.0180     0.6870     6.0290 ca         1 VNY      -0.061800
     16 C10         -1.3560     1.0830     5.9650 ca         1 VNY      -0.098500
     17 C11         -1.8090     2.1080     6.7650 ca         1 VNY      -0.123000
     18 C12         -0.9330     2.7520     7.6380 cp         1 VNY      -0.025000
     19 C13          0.4040     2.3580     7.7020 ca         1 VNY      -0.123000
     20 C14          0.8580     1.3280     6.9070 ca         1 VNY      -0.098500
     21 C15         -1.4210     3.8570     8.4980 cp         1 VNY      -0.038000
     22 C20         -0.5470     4.5020     9.3720 ca         1 VNY      -0.118000
     23 C19         -1.0080     5.5290    10.1700 ca         1 VNY      -0.127000
     24 C18         -2.3340     5.9190    10.1030 ca         1 VNY      -0.125000
     25 C17         -3.2060     5.2820     9.2390 ca         1 VNY      -0.127000
     26 C16         -2.7540     4.2570     8.4320 ca         1 VNY      -0.118000
     27 H6          -0.3140     0.0880    -0.8850 ho         1 VNY       0.403000
     28 H61C         1.7900     0.8850    -0.5100 h1         1 VNY       0.038200
     29 H62C         1.7910    -0.8840    -0.5110 h1         1 VNY       0.038200
     30 H5           1.5110     0.8360     1.9810 h1         1 VNY       0.089700
     31 H4           3.8940    -0.6930     0.8760 h1         1 VNY       0.067700
     32 H1           1.6310    -2.2550     3.8620 h1         1 VNY       0.069700
     33 HA           4.5250     1.2240     0.2200 ho         1 VNY       0.410000
     34 H3           3.5800     0.9060     3.4440 h1         1 VNY       0.084700
     35 HB           5.6970     0.7120     3.5520 ho         1 VNY       0.403000
     36 H2           3.8020    -1.2640     4.5700 h1         1 VNY       0.046700
     37 HC           4.3730    -2.9890     3.4590 ho         1 VNY       0.400000
     38 H7           0.8650    -0.6000     3.3730 ha         1 VNY       0.347000
     39 H211        -0.4080    -2.2010     4.4200 hc         1 VNY       0.057367
     40 H212         0.7310    -2.4450     5.7510 hc         1 VNY       0.057367
     41 H213        -0.8800    -1.7910     6.0750 hc         1 VNY       0.057367
     42 H10         -2.0370     0.5830     5.2870 ha         1 VNY       0.136500
     43 H14          1.8960     1.0220     6.9570 ha         1 VNY       0.136500
     44 H11         -2.8460     2.4150     6.7150 ha         1 VNY       0.136000
     45 H13          1.0830     2.8570     8.3830 ha         1 VNY       0.136000
     46 H20          0.4910     4.1980     9.4240 ha         1 VNY       0.133000
     47 H16         -3.4370     3.7590     7.7550 ha         1 VNY       0.133000
     48 H19         -0.3300     6.0320    10.8490 ha         1 VNY       0.130500
     49 H18         -2.6920     6.7240    10.7330 ha         1 VNY       0.129000
     50 H17         -4.2420     5.5930     9.1890 ha         1 VNY       0.130500
@<TRIPOS>BOND
     1     1     2 1
     2     2     3 1
     3     3     4 1
     4     3     5 1
     5     4    11 1
     6     5     6 1
     7     5     7 1
     8     7     8 1
     9     7     9 1
    10     9    10 1
    11     9    11 1
    12    11    12 1
    13    12    13 2
    14    13    14 1
    15    13    15 1
    16    15    16 ar
    17    15    20 ar
    18    16    17 ar
    19    17    18 ar
    20    18    19 ar
    21    18    21 1
    22    19    20 ar
    23    21    22 ar
    24    21    26 ar
    25    22    23 ar
    26    23    24 ar
    27    24    25 ar
    28    25    26 ar
    29     1    27 1
    30     2    28 1
    31     2    29 1
    32     3    30 1
    33     5    31 1
    34    11    32 1
    35     6    33 1
    36     7    34 1
    37     8    35 1
    38     9    36 1
    39    10    37 1
    40    12    38 1
    41    14    39 1
    42    14    40 1
    43    14    41 1
    44    16    42 1
    45    20    43 1
    46    17    44 1
    47    19    45 1
    48    22    46 1
    49    26    47 1
    50    23    48 1
    51    24    49 1
    52    25    50 1
@<TRIPOS>SUBSTRUCTURE
     1 VNY         1 TEMP              0 ****  ****    0 ROOT
