@<TRIPOS>MOLECULE
molecule
   36    38     1     0     0
SMALL
bcc


@<TRIPOS>ATOM
      1 C1           0.0000     0.0000     0.0000 cc         1 VO1       0.681300
      2 N2           1.2960     0.0000     0.0000 nc         1 VO1      -0.757000
      3 C3           1.8930     0.0000     1.1790 cc         1 VO1       0.403600
      4 C4           1.0630    -0.0010     2.2220 cd         1 VO1      -0.267400
      5 S5          -0.5880     0.0070     1.6050 ss         1 VO1      -0.107300
      6 C6           3.3930    -0.0000     1.3330 c3         1 VO1      -0.117400
      7 N7          -0.7950     0.0010    -1.1370 nu         1 VO1      -0.829600
      8 C8          -2.1830     0.0060    -1.0180 ca         1 VO1       0.667200
      9 N9          -2.7380     0.0170     0.1840 nb         1 VO1      -0.728000
     10 C10         -4.0480     0.0220     0.3410 ca         1 VO1       0.433200
     11 C11         -4.8950     0.0180    -0.7480 ca         1 VO1      -0.260300
     12 C12         -4.3570     0.0080    -2.0280 ca         1 VO1      -0.152000
     13 C13         -2.9770     0.0070    -2.1650 ca         1 VO1      -0.019200
     14 O14         -2.4060     0.0020    -3.3990 os         1 VO1      -0.328900
     15 C15         -3.2880     0.0030    -4.5230 c3         1 VO1       0.190700
     16 C16         -2.4820    -0.0020    -5.7950 ca         1 VO1      -0.101300
     17 C17         -2.1020     1.1910    -6.3790 ca         1 VO1      -0.102000
     18 C18         -1.3620     1.1860    -7.5470 ca         1 VO1      -0.131000
     19 C19         -1.0020    -0.0140    -8.1300 ca         1 VO1      -0.114000
     20 C20         -1.3810    -1.2080    -7.5470 ca         1 VO1      -0.131000
     21 C21         -2.1160    -1.2030    -6.3770 ca         1 VO1      -0.102000
     22 H1           1.3520    -0.0010     3.2660 h4         1 VO1       0.173000
     23 H2           3.7000    -0.8860     1.8750 hc         1 VO1       0.047367
     24 H3           3.8560     0.0030     0.3530 hc         1 VO1       0.047367
     25 H4           3.7000     0.8830     1.8800 hc         1 VO1       0.047367
     26 H5          -0.3710    -0.0030    -2.0440 hn         1 VO1       0.485800
     27 H6          -4.4650     0.0310     1.3410 h4         1 VO1       0.029100
     28 H7          -5.9690     0.0210    -0.6060 ha         1 VO1       0.142000
     29 H8          -5.0000     0.0060    -2.8990 ha         1 VO1       0.146000
     30 H9          -3.9160    -0.8790    -4.4890 h1         1 VO1       0.041700
     31 H10         -3.9100     0.8900    -4.4930 h1         1 VO1       0.041700
     32 H11         -2.3840     2.1320    -5.9220 ha         1 VO1       0.134000
     33 H12         -1.0650     2.1220    -8.0040 ha         1 VO1       0.134000
     34 H13         -0.4230    -0.0190    -9.0460 ha         1 VO1       0.132000
     35 H14         -1.0960    -2.1480    -8.0030 ha         1 VO1       0.134000
     36 H15         -2.4140    -2.1390    -5.9190 ha         1 VO1       0.134000
@<TRIPOS>BOND
     1     6     3 1
     2     3     2 1
     3     3     4 2
     4     2     1 2
     5     4     5 1
     6     1     7 1
     7     1     5 1
     8     7     8 1
     9    14    15 1
    10    14    13 1
    11    17    18 ar
    12    17    16 ar
    13    18    19 ar
    14    15    16 1
    15    16    21 ar
    16    19    20 ar
    17    21    20 ar
    18     8    13 ar
    19     8     9 ar
    20    13    12 ar
    21     9    10 ar
    22    12    11 ar
    23    10    11 ar
    24     4    22 1
    25     6    23 1
    26     6    24 1
    27     6    25 1
    28     7    26 1
    29    10    27 1
    30    11    28 1
    31    12    29 1
    32    15    30 1
    33    15    31 1
    34    17    32 1
    35    18    33 1
    36    19    34 1
    37    20    35 1
    38    21    36 1
@<TRIPOS>SUBSTRUCTURE
     1 VO1         1 TEMP              0 ****  ****    0 ROOT
