@<TRIPOS>MOLECULE
VO1
   36    38     1     0     0
SMALL
bcc


@<TRIPOS>ATOM
      1 C1           0.0000     0.0000     0.0000 cc         1 VO1       0.532300
      2 N2           1.2960     0.0000     0.0000 nd         1 VO1      -0.642000
      3 C3           1.8930     0.0000     1.1790 cd         1 VO1       0.359600
      4 C4           1.0630    -0.0010     2.2220 cc         1 VO1      -0.185400
      5 S5          -0.5880     0.0070     1.6050 ss         1 VO1      -0.257300
      6 C6           3.3930    -0.0000     1.3330 c3         1 VO1      -0.016400
      7 N7          -0.7950     0.0010    -1.1370 nu         1 VO1      -0.345600
      8 C8          -2.1830     0.0060    -1.0180 ca         1 VO1       0.439200
      9 N9          -2.7380     0.0170     0.1840 nb         1 VO1      -0.580000
     10 C10         -4.0480     0.0220     0.3410 ca         1 VO1       0.407200
     11 C11         -4.8950     0.0180    -0.7480 ca         1 VO1      -0.221300
     12 C12         -4.3570     0.0080    -2.0280 ca         1 VO1      -0.142000
     13 C13         -2.9770     0.0070    -2.1650 ca         1 VO1      -0.008200
     14 O14         -2.4060     0.0020    -3.3990 os         1 VO1      -0.303900
     15 C15         -3.2880     0.0030    -4.5230 c3         1 VO1       0.270700
     16 C16         -2.4820    -0.0020    -5.7950 ca         1 VO1      -0.120300
     17 C17         -2.1020     1.1910    -6.3790 ca         1 VO1      -0.074000
     18 C18         -1.3620     1.1860    -7.5470 ca         1 VO1      -0.104000
     19 C19         -1.0020    -0.0140    -8.1300 ca         1 VO1      -0.087000
     20 C20         -1.3810    -1.2080    -7.5470 ca         1 VO1      -0.104000
     21 C21         -2.1160    -1.2030    -6.3770 ca         1 VO1      -0.074000
     22 H1           1.3520    -0.0010     3.2660 h4         1 VO1       0.158000
     23 H2           3.7000    -0.8860     1.8750 hc         1 VO1       0.010367
     24 H3           3.8560     0.0030     0.3530 hc         1 VO1       0.010367
     25 H4           3.7000     0.8830     1.8800 hc         1 VO1       0.010367
     26 H5          -0.3710    -0.0030    -2.0440 hn         1 VO1       0.304800
     27 H6          -4.4650     0.0310     1.3410 h4         1 VO1      -0.014900
     28 H7          -5.9690     0.0210    -0.6060 ha         1 VO1       0.115000
     29 H8          -5.0000     0.0060    -2.8990 ha         1 VO1       0.125000
     30 H9          -3.9160    -0.8790    -4.4890 h1         1 VO1       0.004700
     31 H10         -3.9100     0.8900    -4.4930 h1         1 VO1       0.004700
     32 H11         -2.3840     2.1320    -5.9220 ha         1 VO1       0.106500
     33 H12         -1.0650     2.1220    -8.0040 ha         1 VO1       0.105000
     34 H13         -0.4230    -0.0190    -9.0460 ha         1 VO1       0.103000
     35 H14         -1.0960    -2.1480    -8.0030 ha         1 VO1       0.105000
     36 H15         -2.4140    -2.1390    -5.9190 ha         1 VO1       0.106500
@<TRIPOS>BOND
     1     1     2 2   
     2     1     5 1   
     3     1     7 1   
     4     2     3 1   
     5     3     4 2   
     6     3     6 1   
     7     4     5 1   
     8     4    22 1   
     9     6    23 1   
    10     6    24 1   
    11     6    25 1   
    12     7     8 1   
    13     7    26 1   
    14     8     9 ar  
    15     8    13 ar  
    16     9    10 ar  
    17    10    11 ar  
    18    10    27 1   
    19    11    12 ar  
    20    11    28 1   
    21    12    13 ar  
    22    12    29 1   
    23    13    14 1   
    24    14    15 1   
    25    15    16 1   
    26    15    30 1   
    27    15    31 1   
    28    16    17 ar  
    29    16    21 ar  
    30    17    18 ar  
    31    17    32 1   
    32    18    19 ar  
    33    18    33 1   
    34    19    20 ar  
    35    19    34 1   
    36    20    21 ar  
    37    20    35 1   
    38    21    36 1   
@<TRIPOS>SUBSTRUCTURE
     1 VO1         1 TEMP              0 ****  ****    0 ROOT
