@<TRIPOS>MOLECULE
VO2
   39    41     1     0     0
SMALL
bcc


@<TRIPOS>ATOM
      1 C1           0.0000     0.0000     0.0000 cc         1 VO2       0.533300
      2 N2           1.2970     0.0000     0.0000 nd         1 VO2      -0.644000
      3 C3           1.8930     0.0000     1.1780 cd         1 VO2       0.360600
      4 C4           1.0630    -0.0010     2.2210 cc         1 VO2      -0.187400
      5 S5          -0.5880     0.0060     1.6060 ss         1 VO2      -0.259300
      6 C6           3.3930    -0.0000     1.3310 c3         1 VO2      -0.015400
      7 N7          -0.7940     0.0010    -1.1370 nu         1 VO2      -0.345600
      8 C8          -2.1830     0.0060    -1.0160 ca         1 VO2       0.431200
      9 N9          -2.7380     0.0160     0.1850 nb         1 VO2      -0.573000
     10 C10         -4.0480     0.0220     0.3440 ca         1 VO2       0.404200
     11 C11         -4.8950     0.0170    -0.7470 ca         1 VO2      -0.206600
     12 C12         -4.3580     0.0080    -2.0270 ca         1 VO2      -0.145000
     13 C13         -2.9770     0.0070    -2.1640 ca         1 VO2      -0.003200
     14 O14         -2.4070     0.0020    -3.3990 os         1 VO2      -0.303900
     15 C15         -3.2900     0.0030    -4.5220 c3         1 VO2       0.270700
     16 C16         -2.4830    -0.0020    -5.7940 ca         1 VO2      -0.120300
     17 C17         -2.1050     1.1910    -6.3780 ca         1 VO2      -0.074000
     18 C18         -1.3650     1.1860    -7.5460 ca         1 VO2      -0.104000
     19 C19         -1.0050    -0.0130    -8.1300 ca         1 VO2      -0.087000
     20 C20         -1.3830    -1.2080    -7.5470 ca         1 VO2      -0.104000
     21 C21         -2.1180    -1.2030    -6.3760 ca         1 VO2      -0.074000
     22 C28         -6.3890     0.0230    -0.5490 c3         1 VO2       0.075200
     23 H1           1.3530    -0.0010     3.2650 h4         1 VO2       0.158000
     24 H2           3.8510     0.3380     0.4100 hc         1 VO2       0.009367
     25 H3           3.6740     0.6650     2.1390 hc         1 VO2       0.009367
     26 H4           3.7330    -1.0040     1.5560 hc         1 VO2       0.009367
     27 H5          -0.3710    -0.0330    -2.0430 hn         1 VO2       0.304800
     28 H6          -4.4650     0.0300     1.3430 h4         1 VO2      -0.011900
     29 H7          -5.0010     0.0060    -2.8980 ha         1 VO2       0.128000
     30 H8          -3.9180    -0.8790    -4.4880 h1         1 VO2       0.004700
     31 H9          -3.9110     0.8900    -4.4920 h1         1 VO2       0.004700
     32 H10         -2.3870     2.1310    -5.9200 ha         1 VO2       0.107000
     33 H11         -1.0680     2.1220    -8.0040 ha         1 VO2       0.105000
     34 H12         -0.4270    -0.0180    -9.0470 ha         1 VO2       0.103000
     35 H13         -1.0990    -2.1480    -8.0030 ha         1 VO2       0.105000
     36 H14         -2.4150    -2.1390    -5.9180 ha         1 VO2       0.107000
     37 H15         -6.7250     1.0370    -0.3650 hc         1 VO2       0.008700
     38 H16         -6.6440    -0.6010     0.2980 hc         1 VO2       0.008700
     39 H17         -6.8730    -0.3610    -1.4390 hc         1 VO2       0.008700
@<TRIPOS>BOND
     1     1     2 2   
     2     1     5 1   
     3     1     7 1   
     4     2     3 1   
     5     3     4 2   
     6     3     6 1   
     7     4     5 1   
     8     4    23 1   
     9     6    24 1   
    10     6    25 1   
    11     6    26 1   
    12     7     8 1   
    13     7    27 1   
    14     8     9 ar  
    15     8    13 ar  
    16     9    10 ar  
    17    10    11 ar  
    18    10    28 1   
    19    11    12 ar  
    20    11    22 1   
    21    12    13 ar  
    22    12    29 1   
    23    13    14 1   
    24    14    15 1   
    25    15    16 1   
    26    15    30 1   
    27    15    31 1   
    28    16    17 ar  
    29    16    21 ar  
    30    17    18 ar  
    31    17    32 1   
    32    18    19 ar  
    33    18    33 1   
    34    19    20 ar  
    35    19    34 1   
    36    20    21 ar  
    37    20    35 1   
    38    21    36 1   
    39    22    37 1   
    40    22    38 1   
    41    22    39 1   
@<TRIPOS>SUBSTRUCTURE
     1 VO2         1 TEMP              0 ****  ****    0 ROOT
