@<TRIPOS>MOLECULE
molecule
   39    41     1     0     0
SMALL
bcc


@<TRIPOS>ATOM
      1 C1           0.0000     0.0000     0.0000 cc         1 VO2       0.682300
      2 N2           1.2970     0.0000     0.0000 nc         1 VO2      -0.758000
      3 C3           1.8930     0.0000     1.1780 cc         1 VO2       0.403600
      4 C4           1.0630    -0.0010     2.2210 cd         1 VO2      -0.269400
      5 S5          -0.5880     0.0060     1.6060 ss         1 VO2      -0.108300
      6 C6           3.3930    -0.0000     1.3310 c3         1 VO2      -0.116400
      7 N7          -0.7940     0.0010    -1.1370 nu         1 VO2      -0.829600
      8 C8          -2.1830     0.0060    -1.0160 ca         1 VO2       0.661200
      9 N9          -2.7380     0.0160     0.1850 nb         1 VO2      -0.723000
     10 C10         -4.0480     0.0220     0.3440 ca         1 VO2       0.432200
     11 C11         -4.8950     0.0170    -0.7470 ca         1 VO2      -0.211600
     12 C12         -4.3580     0.0080    -2.0270 ca         1 VO2      -0.154000
     13 C13         -2.9770     0.0070    -2.1640 ca         1 VO2      -0.015200
     14 O14         -2.4070     0.0020    -3.3990 os         1 VO2      -0.328900
     15 C15         -3.2900     0.0030    -4.5220 c3         1 VO2       0.190700
     16 C16         -2.4830    -0.0020    -5.7940 ca         1 VO2      -0.101300
     17 C17         -2.1050     1.1910    -6.3780 ca         1 VO2      -0.102000
     18 C18         -1.3650     1.1860    -7.5460 ca         1 VO2      -0.131000
     19 C19         -1.0050    -0.0130    -8.1300 ca         1 VO2      -0.114000
     20 C20         -1.3830    -1.2080    -7.5470 ca         1 VO2      -0.131000
     21 C21         -2.1180    -1.2030    -6.3760 ca         1 VO2      -0.102000
     22 C28         -6.3890     0.0230    -0.5490 c3         1 VO2      -0.039800
     23 H1           1.3530    -0.0010     3.2650 h4         1 VO2       0.173000
     24 H2           3.8510     0.3380     0.4100 hc         1 VO2       0.047367
     25 H3           3.6740     0.6650     2.1390 hc         1 VO2       0.047367
     26 H4           3.7330    -1.0040     1.5560 hc         1 VO2       0.047367
     27 H5          -0.3710    -0.0330    -2.0430 hn         1 VO2       0.485800
     28 H6          -4.4650     0.0300     1.3430 h4         1 VO2       0.030100
     29 H7          -5.0010     0.0060    -2.8980 ha         1 VO2       0.147000
     30 H8          -3.9180    -0.8790    -4.4880 h1         1 VO2       0.041700
     31 H9          -3.9110     0.8900    -4.4920 h1         1 VO2       0.041700
     32 H10         -2.3870     2.1310    -5.9200 ha         1 VO2       0.134000
     33 H11         -1.0680     2.1220    -8.0040 ha         1 VO2       0.134000
     34 H12         -0.4270    -0.0180    -9.0470 ha         1 VO2       0.132000
     35 H13         -1.0990    -2.1480    -8.0030 ha         1 VO2       0.134000
     36 H14         -2.4150    -2.1390    -5.9180 ha         1 VO2       0.134000
     37 H15         -6.7250     1.0370    -0.3650 hc         1 VO2       0.045367
     38 H16         -6.6440    -0.6010     0.2980 hc         1 VO2       0.045367
     39 H17         -6.8730    -0.3610    -1.4390 hc         1 VO2       0.045367
@<TRIPOS>BOND
     1     6     3 1
     2     3     2 1
     3     3     4 2
     4     2     1 2
     5     4     5 1
     6     1     7 1
     7     1     5 1
     8    18    17 ar
     9    18    19 ar
    10     7     8 1
    11    17    16 ar
    12    19    20 ar
    13    14    15 1
    14    14    13 1
    15    16    15 1
    16    16    21 ar
    17     8    13 ar
    18     8     9 ar
    19    20    21 ar
    20    13    12 ar
    21     9    10 ar
    22    12    11 ar
    23    10    11 ar
    24    11    22 1
    25     4    23 1
    26     6    24 1
    27     6    25 1
    28     6    26 1
    29     7    27 1
    30    10    28 1
    31    12    29 1
    32    15    30 1
    33    15    31 1
    34    17    32 1
    35    18    33 1
    36    19    34 1
    37    20    35 1
    38    21    36 1
    39    22    37 1
    40    22    38 1
    41    22    39 1
@<TRIPOS>SUBSTRUCTURE
     1 VO2         1 TEMP              0 ****  ****    0 ROOT
