@<TRIPOS>MOLECULE
VOD
   22    22     1     0     0
SMALL
bcc


@<TRIPOS>ATOM
      1 C2         -0.0280   -0.0930   -0.1040 c2        1 VOD     -0.255000
      2 C3          1.3020   -0.0680    0.0090 ce        1 VOD     -0.075200
      3 C4          2.0530    0.0040    1.2500 ca        1 VOD     -0.110800
      4 C5          3.4410   -0.2100    1.2250 ca        1 VOD     -0.114500
      5 C6          4.1890   -0.1600    2.3950 ca        1 VOD     -0.147500
      6 C7          3.5770    0.1130    3.6280 ca        1 VOD      0.033700
      7 C8          2.1930    0.3500    3.6500 ca        1 VOD     -0.147500
      8 C9          1.4450    0.2950    2.4800 ca        1 VOD     -0.114500
      9 C10         4.3560    0.1240    4.8730 c3        1 VOD     -0.247300
     10 S11         4.3140    1.6270    5.8820 s6        1 VOD      1.427800
     11 O12         4.9200    2.6310    5.1020 o         1 VOD     -0.744867
     12 O13         2.9460    1.8380    6.1620 o         1 VOD     -0.744867
     13 O11         5.0730    1.2460    7.0120 o         1 VOD     -0.744867
     14 H21C       -0.7060   -0.0610    0.7570 ha        1 VOD      0.103000
     15 H22C       -0.5240   -0.1470   -1.0810 ha        1 VOD      0.103000
     16 H3          1.9270   -0.1100   -0.9030 ha        1 VOD      0.105000
     17 H5          3.9400   -0.4220    0.2680 ha        1 VOD      0.112500
     18 H9          0.3640    0.4940    2.5220 ha        1 VOD      0.112500
     19 H6          5.2760   -0.3260    2.3560 ha        1 VOD      0.150000
     20 H8          1.7170    0.6180    4.6110 ha        1 VOD      0.150000
     21 H101        3.9830   -0.6970    5.5370 h1        1 VOD      0.075200
     22 H102        5.4330   -0.0890    4.6630 h1        1 VOD      0.075200
@<TRIPOS>BOND
     1    1    2 2   
     2    1   14 1   
     3    1   15 1   
     4    2    3 1   
     5    2   16 1   
     6    3    4 ar  
     7    3    8 ar  
     8    4    5 ar  
     9    4   17 1   
    10    5    6 ar  
    11    5   19 1   
    12    6    7 ar  
    13    6    9 1   
    14    7    8 ar  
    15    7   20 1   
    16    8   18 1   
    17    9   10 1   
    18    9   21 1   
    19    9   22 1   
    20   10   11 1   
    21   10   12 1   
    22   10   13 1   
@<TRIPOS>SUBSTRUCTURE
     1 VOD         1 TEMP              0 ****  ****    0 ROOT
