@<TRIPOS>MOLECULE
molecule
   22    22     1     0     0
SMALL
bcc


@<TRIPOS>ATOM
      1 C2           0.0000     0.0000     0.0000 c2         1 VOD      -0.250000
      2 C3           1.3260     0.0000     0.0000 ce         1 VOD      -0.089200
      3 C4           2.0650     0.0000     1.2800 ca         1 VOD      -0.098800
      4 C5           3.4610    -0.0000     1.2820 ca         1 VOD      -0.117000
      5 C6           4.1450    -0.0000     2.4800 ca         1 VOD      -0.127000
      6 C7           3.4510    -0.0010     3.6770 ca         1 VOD      -0.024300
      7 C8           2.0680    -0.0010     3.6810 ca         1 VOD      -0.127000
      8 C9           1.3710     0.0060     2.4900 ca         1 VOD      -0.117000
      9 C10          4.2050    -0.0010     4.9820 c3         1 VOD      -0.213300
     10 S11          4.5070     1.7090     5.5060 s6         1 VOD       1.253800
     11 O12          5.4300     2.3440     4.6310 o          1 VOD      -0.701200
     12 O13          3.2880     2.3430     5.8690 o          1 VOD      -0.701200
     13 O11          5.2660     1.5750     6.8190 o          1 VOD      -0.701200
     14 H21C        -0.5420    -0.0000    -0.9380 ha         1 VOD       0.108000
     15 H22C        -0.5420     0.0000     0.9380 ha         1 VOD       0.108000
     16 H3           1.8670    -0.0000    -0.9380 ha         1 VOD       0.115000
     17 H5           4.0060     0.0000     0.3460 ha         1 VOD       0.118000
     18 H9           0.2880     0.0060     2.4940 ha         1 VOD       0.118000
     19 H6           5.2290    -0.0000     2.4830 ha         1 VOD       0.140000
     20 H8           1.5300     0.0010     4.6220 ha         1 VOD       0.140000
     21 H101         3.6200    -0.5120     5.7370 h1         1 VOD       0.082700
     22 H102         5.1520    -0.5120     4.8520 h1         1 VOD       0.082700
@<TRIPOS>BOND
     1     1     2 2
     2     2     3 1
     3     3     4 ar
     4     3     8 ar
     5     4     5 ar
     6     5     6 ar
     7     6     7 ar
     8     6     9 1
     9     7     8 ar
    10     9    10 1
    11    10    11 1
    12    10    12 1
    13    10    13 1
    14     1    14 1
    15     1    15 1
    16     2    16 1
    17     4    17 1
    18     8    18 1
    19     5    19 1
    20     7    20 1
    21     9    21 1
    22     9    22 1
@<TRIPOS>SUBSTRUCTURE
     1 VOD         1 TEMP              0 ****  ****    0 ROOT
