@<TRIPOS>MOLECULE
molecule
   39    39     1     0     0
SMALL
bcc


@<TRIPOS>ATOM
      1 C1           0.0000     0.0000     0.0000 c3         1 VOG       0.175800
      2 O1          -0.4760     1.1670     0.6740 oh         1 VOG      -0.551800
      3 C2           1.5300     0.0000     0.0000 c3         1 VOG       0.114100
      4 O2           2.0070     1.1680    -0.6730 oh         1 VOG      -0.562800
      5 C3           2.0400     0.0000     1.4420 c3         1 VOG       0.114100
      6 O3           3.4690    -0.0010     1.4410 oh         1 VOG      -0.589800
      7 C4           1.5300    -1.2500     2.1630 c3         1 VOG       0.110100
      8 O4           2.0080    -1.2510     3.5100 oh         1 VOG      -0.588800
      9 C5           0.0000    -1.2500     2.1630 c3         1 VOG       0.164500
     10 C6          -0.5100    -1.2500     0.7210 c3         1 VOG      -0.073400
     11 C7          -0.5110     0.0010    -1.4420 c3         1 VOG       0.104400
     12 O7           0.0590     1.1050    -2.1490 oh         1 VOG      -0.584800
     13 N           -0.4890    -0.0510     2.8570 n7         1 VOG      -0.776200
     14 C8          -1.8180    -0.2840     3.4360 c3         1 VOG       0.175500
     15 C9          -1.6670    -0.9140     4.8220 c3         1 VOG       0.132400
     16 O9          -0.9950    -0.0010     5.6900 oh         1 VOG      -0.575800
     17 C10         -2.5610     1.0480     3.5600 c3         1 VOG       0.132400
     18 O10         -1.8820     1.8860     4.4960 oh         1 VOG      -0.575800
     19 H1          -0.7400     1.8120     0.0390 ho         1 VOG       0.405000
     20 H2           1.8890    -0.8870    -0.5080 h1         1 VOG       0.016700
     21 H3           2.8480     0.9870    -1.0590 ho         1 VOG       0.399000
     22 H4           1.6750     0.8830     1.9520 h1         1 VOG       0.141700
     23 H5           3.7830    -0.7930     1.0390 ho         1 VOG       0.382000
     24 H6           1.8890    -2.1320     1.6480 h1         1 VOG       0.022700
     25 H7           2.6100    -1.9660     3.6290 ho         1 VOG       0.403000
     26 H8          -0.3580    -2.1370     2.6700 h1         1 VOG       0.026700
     27 H9          -1.5930    -1.2470     0.7230 hc         1 VOG       0.049700
     28 H10         -0.1460    -2.1330     0.2110 hc         1 VOG       0.049700
     29 H11         -1.5900     0.0910    -1.4430 h1         1 VOG       0.024700
     30 H12         -0.2250    -0.9240    -1.9270 h1         1 VOG       0.024700
     31 H13         -0.3440     1.1760    -2.9980 ho         1 VOG       0.397000
     32 H14          0.1520     0.1990     3.5840 hn         1 VOG       0.403800
     33 H16         -2.3800    -0.9520     2.7940 h1         1 VOG       0.056700
     34 H17         -2.6470    -1.1400     5.2240 h1         1 VOG       0.017950
     35 H18         -1.0900    -1.8280     4.7420 h1         1 VOG       0.017950
     36 H19         -0.9660    -0.3590     6.5620 ho         1 VOG       0.390500
     37 H20         -3.5720     0.8670     3.9050 h1         1 VOG       0.017950
     38 H21         -2.5910     1.5370     2.5940 h1         1 VOG       0.017950
     39 H22         -2.3020     2.7300     4.5260 ho         1 VOG       0.390500
@<TRIPOS>BOND
     1    12    11 1
     2    11     1 1
     3     6     5 1
     4     3     4 1
     5     3     5 1
     6     3     1 1
     7     7     5 1
     8     7     8 1
     9     7     9 1
    10     1    10 1
    11     1     2 1
    12    10     9 1
    13     9    13 1
    14    13    14 1
    15    17    14 1
    16    17    18 1
    17    14    15 1
    18    15    16 1
    19     2    19 1
    20     3    20 1
    21     4    21 1
    22     5    22 1
    23     6    23 1
    24     7    24 1
    25     8    25 1
    26     9    26 1
    27    10    27 1
    28    10    28 1
    29    11    29 1
    30    11    30 1
    31    12    31 1
    32    13    32 1
    33    14    33 1
    34    15    34 1
    35    15    35 1
    36    16    36 1
    37    17    37 1
    38    17    38 1
    39    18    39 1
@<TRIPOS>SUBSTRUCTURE
     1 VOG         1 TEMP              0 ****  ****    0 ROOT
