@<TRIPOS>MOLECULE
VOG
   39    39     1     0     0
SMALL
bcc


@<TRIPOS>ATOM
      1 C1           0.0000     0.0000     0.0000 c3         1 VOG       0.166800
      2 O1          -0.4760     1.1670     0.6740 oh         1 VOG      -0.542800
      3 C2           1.5300     0.0000     0.0000 c3         1 VOG       0.150100
      4 O2           2.0070     1.1680    -0.6730 oh         1 VOG      -0.546800
      5 C3           2.0400     0.0000     1.4420 c3         1 VOG       0.137100
      6 O3           3.4690    -0.0010     1.4410 oh         1 VOG      -0.572800
      7 C4           1.5300    -1.2500     2.1630 c3         1 VOG       0.154100
      8 O4           2.0080    -1.2510     3.5100 oh         1 VOG      -0.568800
      9 C5           0.0000    -1.2500     2.1630 c3         1 VOG       0.111500
     10 C6          -0.5100    -1.2500     0.7210 c3         1 VOG      -0.028400
     11 C7          -0.5110     0.0010    -1.4420 c3         1 VOG       0.183400
     12 O7           0.0590     1.1050    -2.1490 oh         1 VOG      -0.565800
     13 N           -0.4890    -0.0510     2.8570 n7         1 VOG      -0.549200
     14 C8          -1.8180    -0.2840     3.4360 c3         1 VOG       0.103500
     15 C9          -1.6670    -0.9140     4.8220 c3         1 VOG       0.213400
     16 O9          -0.9950    -0.0010     5.6900 oh         1 VOG      -0.558800
     17 C10         -2.5610     1.0480     3.5600 c3         1 VOG       0.213400
     18 O10         -1.8820     1.8860     4.4960 oh         1 VOG      -0.558800
     19 H1          -0.7400     1.8120     0.0390 ho         1 VOG       0.392000
     20 H2           1.8890    -0.8870    -0.5080 h1         1 VOG      -0.008300
     21 H3           2.8480     0.9870    -1.0590 ho         1 VOG       0.384000
     22 H4           1.6750     0.8830     1.9520 h1         1 VOG       0.097700
     23 H5           3.7830    -0.7930     1.0390 ho         1 VOG       0.371000
     24 H6           1.8890    -2.1320     1.6480 h1         1 VOG      -0.007300
     25 H7           2.6100    -1.9660     3.6290 ho         1 VOG       0.388000
     26 H8          -0.3580    -2.1370     2.6700 h1         1 VOG       0.010700
     27 H9          -1.5930    -1.2470     0.7230 hc         1 VOG       0.020700
     28 H10         -0.1460    -2.1330     0.2110 hc         1 VOG       0.020700
     29 H11         -1.5900     0.0910    -1.4430 h1         1 VOG      -0.009300
     30 H12         -0.2250    -0.9240    -1.9270 h1         1 VOG      -0.009300
     31 H13         -0.3440     1.1760    -2.9980 ho         1 VOG       0.382000
     32 H14          0.1520     0.1990     3.5840 hn         1 VOG       0.302800
     33 H16         -2.3800    -0.9520     2.7940 h1         1 VOG       0.031700
     34 H17         -2.6470    -1.1400     5.2240 h1         1 VOG      -0.015800
     35 H18         -1.0900    -1.8280     4.7420 h1         1 VOG      -0.015800
     36 H19         -0.9660    -0.3590     6.5620 ho         1 VOG       0.376500
     37 H20         -3.5720     0.8670     3.9050 h1         1 VOG      -0.015800
     38 H21         -2.5910     1.5370     2.5940 h1         1 VOG      -0.015800
     39 H22         -2.3020     2.7300     4.5260 ho         1 VOG       0.376500
@<TRIPOS>BOND
     1     1     2 1   
     2     1     3 1   
     3     1    10 1   
     4     1    11 1   
     5     2    19 1   
     6     3     4 1   
     7     3     5 1   
     8     3    20 1   
     9     4    21 1   
    10     5     6 1   
    11     5     7 1   
    12     5    22 1   
    13     6    23 1   
    14     7     8 1   
    15     7     9 1   
    16     7    24 1   
    17     8    25 1   
    18     9    10 1   
    19     9    13 1   
    20     9    26 1   
    21    10    27 1   
    22    10    28 1   
    23    11    12 1   
    24    11    29 1   
    25    11    30 1   
    26    12    31 1   
    27    13    14 1   
    28    13    32 1   
    29    14    15 1   
    30    14    17 1   
    31    14    33 1   
    32    15    16 1   
    33    15    34 1   
    34    15    35 1   
    35    16    36 1   
    36    17    18 1   
    37    17    37 1   
    38    17    38 1   
    39    18    39 1   
@<TRIPOS>SUBSTRUCTURE
     1 VOG         1 TEMP              0 ****  ****    0 ROOT
