@<TRIPOS>MOLECULE
molecule
   24    24     1     0     0
SMALL
bcc


@<TRIPOS>ATOM
      1 CAB          0.0000     0.0000     0.0000 c3         1 VOH       0.127700
      2 OAI          1.4290     0.0000     0.0000 os         1 VOH      -0.313900
      3 CAL          2.0460     0.0000     1.2120 ca         1 VOH       0.112100
      4 CAF          1.2930    -0.0060     2.3740 ca         1 VOH      -0.168000
      5 CAJ          1.9220    -0.0070     3.6060 ca         1 VOH      -0.088300
      6 CAG          1.1010    -0.0130     4.8700 c3         1 VOH       0.191700
      7 OAC          0.8470    -1.3630     5.2650 oh         1 VOH      -0.603800
      8 CAD          3.3020    -0.0020     3.6810 ca         1 VOH      -0.105000
      9 CAE          4.0600     0.0040     2.5240 ca         1 VOH      -0.194000
     10 CAK          3.4360    -0.0010     1.2870 ca         1 VOH       0.122100
     11 OAH          4.1800    -0.0010     0.1480 os         1 VOH      -0.313900
     12 CAA          5.6010    -0.0010     0.3020 c3         1 VOH       0.127700
     13 H1          -0.3610    -0.8990     0.4840 h1         1 VOH       0.040367
     14 H2          -0.3610     0.8690     0.5370 h1         1 VOH       0.040367
     15 H3          -0.3610     0.0300    -1.0210 h1         1 VOH       0.040367
     16 H4           0.2110     0.0070     2.3180 ha         1 VOH       0.142000
     17 H5           0.1610     0.4950     4.6920 h1         1 VOH       0.023700
     18 H6           1.6450     0.4970     5.6550 h1         1 VOH       0.023700
     19 H7           0.3330    -1.3670     6.0560 ho         1 VOH       0.400000
     20 H8           3.7910    -0.0010     4.6480 ha         1 VOH       0.134000
     21 H9           5.1410     0.0050     2.5850 ha         1 VOH       0.140000
     22 H10          6.0700    -0.0030    -0.6740 h1         1 VOH       0.040033
     23 H11          5.9050     0.8850     0.8470 h1         1 VOH       0.040033
     24 H12          5.9050    -0.8840     0.8510 h1         1 VOH       0.040033
@<TRIPOS>BOND
     1     1     2 1
     2     7     6 1
     3     2     3 1
     4     4     3 ar
     5     4     5 ar
     6     6     5 1
     7     3    10 ar
     8     5     8 ar
     9    10    11 1
    10    10     9 ar
    11     8     9 ar
    12    12    11 1
    13     1    13 1
    14     1    14 1
    15     1    15 1
    16     4    16 1
    17     6    17 1
    18     6    18 1
    19     7    19 1
    20     8    20 1
    21     9    21 1
    22    12    22 1
    23    12    23 1
    24    12    24 1
@<TRIPOS>SUBSTRUCTURE
     1 VOH         1 TEMP              0 ****  ****    0 ROOT
