@<TRIPOS>MOLECULE
VOR
   39    41     1     0     0
SMALL
bcc


@<TRIPOS>ATOM
      1 F1          0.0980   -0.0980   -0.1610 f         1 VOR     -0.142900
      2 F2         -2.3050   -0.2920    3.0950 f         1 VOR     -0.121900
      3 F3          4.3170   -0.1410   -2.3370 f         1 VOR     -0.128900
      4 O4          2.2120    0.0800    3.6020 oh        1 VOR     -0.566800
      5 N5          1.1370    2.5330    2.3700 na        1 VOR     -0.051400
      6 N6          0.3930   -1.8120    5.0270 nb        1 VOR     -0.673000
      7 N7          1.8960    3.1670    3.2830 nc        1 VOR     -0.493800
      8 N8          1.9180    4.3580    1.3020 nd        1 VOR     -0.682000
      9 N9         -1.5370   -1.4300    6.4600 nb        1 VOR     -0.666000
     10 C10         1.3260    0.0020    2.4970 c3        1 VOR      0.204100
     11 C11         0.3890   -1.2320    2.6120 c3        1 VOR     -0.152000
     12 C12         0.4470    1.2860    2.5870 c3        1 VOR      0.061300
     13 C13         2.0930   -0.0370    1.1940 ca        1 VOR     -0.163300
     14 C14         1.1170   -2.5250    2.3060 c3        1 VOR     -0.088100
     15 C15        -0.2720   -1.2920    3.9670 ca        1 VOR      0.420600
     16 C16         1.4510   -0.0910   -0.0640 ca        1 VOR      0.145900
     17 C17         3.4920    0.0130    1.2160 ca        1 VOR     -0.062000
     18 C18        -1.6100   -0.8180    4.1240 ca        1 VOR     -0.116700
     19 C19         2.1930   -0.1300   -1.2570 ca        1 VOR     -0.207000
     20 C20         4.2470   -0.0210    0.0500 ca        1 VOR     -0.175000
     21 C21         1.1550    3.2570    1.1530 cc        1 VOR      0.399400
     22 C22         3.5950   -0.1000   -1.1940 ca        1 VOR      0.161900
     23 C23        -2.2020   -0.9160    5.4140 ca        1 VOR      0.407200
     24 C24        -0.2660   -1.8520    6.2120 ca        1 VOR      0.629900
     25 C25         2.3620    4.2710    2.6360 cd        1 VOR      0.491900
     26 HO4         2.5670   -0.8060    3.7570 ho        1 VOR      0.417000
     27 H11        -0.4290   -1.1030    1.8430 hc        1 VOR      0.088700
     28 H12        -0.3650    1.2050    1.8090 h1        1 VOR      0.083200
     29 H12A       -0.0180    1.2970    3.6150 h1        1 VOR      0.083200
     30 H14         1.4550   -2.5230    1.2400 hc        1 VOR      0.050033
     31 H14A        2.0100   -2.6620    2.9620 hc        1 VOR      0.050033
     32 H14B        0.4340   -3.3950    2.4600 hc        1 VOR      0.050033
     33 H17         4.0110    0.0980    2.1880 ha        1 VOR      0.164000
     34 H19         1.6780   -0.1790   -2.2270 ha        1 VOR      0.168000
     35 H20         5.3450    0.0200    0.0890 ha        1 VOR      0.160000
     36 H21         0.6110    2.9420    0.2580 h5        1 VOR      0.070100
     37 H23        -3.2360   -0.5670    5.5880 h4        1 VOR      0.047100
     38 H24         0.2940   -2.2750    7.0730 h5        1 VOR      0.065100
     39 H25         3.0130    5.0220    3.0940 h5        1 VOR      0.071100
@<TRIPOS>BOND
     1    1   16 1   
     2    2   18 1   
     3    3   22 1   
     4    4   10 1   
     5    4   26 1   
     6    5    7 1   
     7    5   12 1   
     8    5   21 1   
     9    6   15 ar  
    10    6   24 ar  
    11    7   25 2   
    12    8   21 2   
    13    8   25 1   
    14    9   23 ar  
    15    9   24 ar  
    16   10   11 1   
    17   10   12 1   
    18   10   13 1   
    19   11   14 1   
    20   11   15 1   
    21   11   27 1   
    22   12   28 1   
    23   12   29 1   
    24   13   16 ar  
    25   13   17 ar  
    26   14   30 1   
    27   14   31 1   
    28   14   32 1   
    29   15   18 ar  
    30   16   19 ar  
    31   17   20 ar  
    32   17   33 1   
    33   18   23 ar  
    34   19   22 ar  
    35   19   34 1   
    36   20   22 ar  
    37   20   35 1   
    38   21   36 1   
    39   23   37 1   
    40   24   38 1   
    41   25   39 1   
@<TRIPOS>SUBSTRUCTURE
     1 VOR         1 TEMP              0 ****  ****    0 ROOT
