@<TRIPOS>MOLECULE
VPA
   58    60     1     0     0
SMALL
bcc


@<TRIPOS>ATOM
      1 C1           0.0000     0.0000     0.0000 c2         1 VPA       0.453200
      2 C2           1.5070     0.0000     0.0000 c3         1 VPA      -0.031400
      3 N2          -0.6460     0.0000     1.1200 n2         1 VPA      -0.778100
      4 C3           2.0090     0.0010     1.4210 ca         1 VPA      -0.104300
      5 C4           2.2400    -1.1970     2.0730 ca         1 VPA      -0.089500
      6 C5           2.7020    -1.1960     3.3760 ca         1 VPA      -0.099000
      7 C6           2.9310     0.0020     4.0270 ca         1 VPA      -0.097000
      8 C8           2.2450     1.1980     2.0700 ca         1 VPA      -0.089500
      9 C7           2.7010     1.1980     3.3750 ca         1 VPA      -0.099000
     10 N1          -0.6850     0.0050    -1.1860 nu         1 VPA      -0.445200
     11 C1'         -2.1500     0.0040    -1.1860 c3         1 VPA       0.340300
     12 O5'         -2.6260    -1.3370    -1.3100 os         1 VPA      -0.403600
     13 C2'         -2.6610     0.8370    -2.3650 c3         1 VPA       0.130100
     14 O2'         -2.2330     2.1920    -2.2130 oh         1 VPA      -0.573800
     15 C3'         -4.1920     0.7820    -2.3930 c3         1 VPA       0.148100
     16 O3'         -4.6750     1.4960    -3.5330 oh         1 VPA      -0.590800
     17 C4'         -4.6380    -0.6810    -2.4770 c3         1 VPA       0.141100
     18 O4'         -6.0640    -0.7490    -2.4310 oh         1 VPA      -0.578800
     19 C5'         -4.0500    -1.4550    -1.2940 c3         1 VPA       0.175100
     20 C6'         -4.4420    -2.9300    -1.4050 c3         1 VPA       0.211400
     21 O6'         -3.9940    -3.6300    -0.2420 os         1 VPA      -0.379600
     22 C1A         -4.3100    -5.0230    -0.2440 c3         1 VPA       0.380900
     23 O5A         -5.7290    -5.1890    -0.1970 os         1 VPA      -0.431600
     24 C5A         -6.1580    -6.5520    -0.2210 c3         1 VPA       0.202400
     25 C4A         -5.6000    -7.2830     1.0030 c3         1 VPA       0.132100
     26 O4A         -5.9790    -8.6600     0.9520 oh         1 VPA      -0.579800
     27 C3A         -4.0720    -7.1720     1.0020 c3         1 VPA       0.165100
     28 O3A         -3.5470    -7.7890     2.1800 oh         1 VPA      -0.579800
     29 C2A         -3.6780    -5.6920     0.9790 c3         1 VPA       0.146100
     30 O2A         -2.2550    -5.5780     0.9050 oh         1 VPA      -0.574800
     31 H1           1.8680     0.8840    -0.5110 hc         1 VPA       0.028700
     32 H2           1.8680    -0.8850    -0.5100 hc         1 VPA       0.028700
     33 H3          -0.1450    -0.0020     1.9870 hn         1 VPA       0.343400
     34 H4           2.0600    -2.1350     1.5620 ha         1 VPA       0.109500
     35 H5           2.8830    -2.1340     3.8870 ha         1 VPA       0.104000
     36 H6           3.2910     0.0030     5.0490 ha         1 VPA       0.103000
     37 H7           2.0640     2.1360     1.5590 ha         1 VPA       0.109500
     38 H8           2.8830     2.1370     3.8850 ha         1 VPA       0.104000
     39 H9          -0.1850    -0.0280    -2.0530 hn         1 VPA       0.281800
     40 H10         -2.5160     0.4310    -0.2600 h2         1 VPA       0.066700
     41 H11         -2.2700     0.4300    -3.2890 h1         1 VPA       0.016700
     42 H12         -1.9050     2.5120    -3.0370 ho         1 VPA       0.395000
     43 H13         -4.5860     1.2270    -1.4870 h1         1 VPA       0.030700
     44 H14         -5.2290     2.2040    -3.2480 ho         1 VPA       0.402000
     45 H15         -4.2800    -1.1130    -3.4040 h1         1 VPA       0.019700
     46 H16         -6.4000    -0.8960    -3.3000 ho         1 VPA       0.398000
     47 H17         -4.4350    -1.0420    -0.3680 h1         1 VPA       0.035700
     48 H18         -3.9810    -3.3610    -2.2850 h1         1 VPA       0.009200
     49 H19         -5.5190    -3.0130    -1.4840 h1         1 VPA       0.009200
     50 H20         -3.9240    -5.4840    -1.1450 h2         1 VPA       0.002700
     51 H21         -5.7920    -7.0290    -1.1230 h1         1 VPA       0.015700
     52 H22         -7.2400    -6.5900    -0.2000 h1         1 VPA       0.015700
     53 H23         -5.9930    -6.8280     1.9040 h1         1 VPA       0.023700
     54 H24         -6.6910    -8.8130     1.5510 ho         1 VPA       0.396000
     55 H25         -3.6760    -7.6640     0.1220 h1         1 VPA       0.020700
     56 H26         -2.9740    -8.4960     1.9350 ho         1 VPA       0.399000
     57 H27         -4.0390    -5.2100     1.8790 h1         1 VPA       0.030700
     58 H28         -1.9320    -5.1690     1.6900 ho         1 VPA       0.403000
@<TRIPOS>BOND
     1     1     2 1   
     2     1     3 2   
     3     1    10 1   
     4     2     4 1   
     5     2    31 1   
     6     2    32 1   
     7     3    33 1   
     8     4     5 ar  
     9     4     8 ar  
    10     5     6 ar  
    11     5    34 1   
    12     6     7 ar  
    13     6    35 1   
    14     7     9 ar  
    15     7    36 1   
    16     8     9 ar  
    17     8    37 1   
    18     9    38 1   
    19    10    11 1   
    20    10    39 1   
    21    11    12 1   
    22    11    13 1   
    23    11    40 1   
    24    12    19 1   
    25    13    14 1   
    26    13    15 1   
    27    13    41 1   
    28    14    42 1   
    29    15    16 1   
    30    15    17 1   
    31    15    43 1   
    32    16    44 1   
    33    17    18 1   
    34    17    19 1   
    35    17    45 1   
    36    18    46 1   
    37    19    20 1   
    38    19    47 1   
    39    20    21 1   
    40    20    48 1   
    41    20    49 1   
    42    21    22 1   
    43    22    23 1   
    44    22    29 1   
    45    22    50 1   
    46    23    24 1   
    47    24    25 1   
    48    24    51 1   
    49    24    52 1   
    50    25    26 1   
    51    25    27 1   
    52    25    53 1   
    53    26    54 1   
    54    27    28 1   
    55    27    29 1   
    56    27    55 1   
    57    28    56 1   
    58    29    30 1   
    59    29    57 1   
    60    30    58 1   
@<TRIPOS>SUBSTRUCTURE
     1 VPA         1 TEMP              0 ****  ****    0 ROOT
