@<TRIPOS>MOLECULE
molecule
   58    60     1     0     0
SMALL
bcc


@<TRIPOS>ATOM
      1 C1           0.0000     0.0000     0.0000 c2         1 VPA       0.644200
      2 C2           1.5070     0.0000     0.0000 c3         1 VPA      -0.058400
      3 N2          -0.6460     0.0000     1.1200 n2         1 VPA      -0.868100
      4 C3           2.0090     0.0010     1.4210 ca         1 VPA      -0.055300
      5 C4           2.2400    -1.1970     2.0730 ca         1 VPA      -0.108500
      6 C5           2.7020    -1.1960     3.3760 ca         1 VPA      -0.128000
      7 C6           2.9310     0.0020     4.0270 ca         1 VPA      -0.128000
      8 C8           2.2450     1.1980     2.0700 ca         1 VPA      -0.108500
      9 C7           2.7010     1.1980     3.3750 ca         1 VPA      -0.128000
     10 N1          -0.6850     0.0050    -1.1860 nu         1 VPA      -0.906200
     11 C1'         -2.1500     0.0040    -1.1860 c3         1 VPA       0.433300
     12 O5'         -2.6260    -1.3370    -1.3100 os         1 VPA      -0.422600
     13 C2'         -2.6610     0.8370    -2.3650 c3         1 VPA       0.099100
     14 O2'         -2.2330     2.1920    -2.2130 oh         1 VPA      -0.591800
     15 C3'         -4.1920     0.7820    -2.3930 c3         1 VPA       0.110100
     16 O3'         -4.6750     1.4960    -3.5330 oh         1 VPA      -0.606800
     17 C4'         -4.6380    -0.6810    -2.4770 c3         1 VPA       0.105100
     18 O4'         -6.0640    -0.7490    -2.4310 oh         1 VPA      -0.597800
     19 C5'         -4.0500    -1.4550    -1.2940 c3         1 VPA       0.150100
     20 C6'         -4.4420    -2.9300    -1.4050 c3         1 VPA       0.150400
     21 O6'         -3.9940    -3.6300    -0.2420 os         1 VPA      -0.390600
     22 C1A         -4.3100    -5.0230    -0.2440 c3         1 VPA       0.337900
     23 O5A         -5.7290    -5.1890    -0.1970 os         1 VPA      -0.448600
     24 C5A         -6.1580    -6.5520    -0.2210 c3         1 VPA       0.128400
     25 C4A         -5.6000    -7.2830     1.0030 c3         1 VPA       0.097100
     26 O4A         -5.9790    -8.6600     0.9520 oh         1 VPA      -0.598800
     27 C3A         -4.0720    -7.1720     1.0020 c3         1 VPA       0.133100
     28 O3A         -3.5470    -7.7890     2.1800 oh         1 VPA      -0.596800
     29 C2A         -3.6780    -5.6920     0.9790 c3         1 VPA       0.121100
     30 O2A         -2.2550    -5.5780     0.9050 oh         1 VPA      -0.591800
     31 H1           1.8680    -0.8850    -0.5100 hc         1 VPA       0.060700
     32 H2           1.8680     0.8840    -0.5110 hc         1 VPA       0.060700
     33 H3          -1.6470     0.0020     1.1210 hn         1 VPA       0.394400
     34 H4           2.0600    -2.1350     1.5620 ha         1 VPA       0.127500
     35 H5           2.8830    -2.1340     3.8870 ha         1 VPA       0.126000
     36 H6           3.2910     0.0030     5.0490 ha         1 VPA       0.125000
     37 H7           2.0640     2.1360     1.5590 ha         1 VPA       0.127500
     38 H8           2.8830     2.1370     3.8850 ha         1 VPA       0.126000
     39 H9          -0.1850    -0.0280    -2.0530 hn         1 VPA       0.430800
     40 H10         -2.5160     0.4310    -0.2600 h2         1 VPA       0.070700
     41 H11         -2.2700     0.4300    -3.2890 h1         1 VPA       0.054700
     42 H12         -1.9240     2.5180    -3.0420 ho         1 VPA       0.413000
     43 H13         -4.5860     1.2270    -1.4870 h1         1 VPA       0.063700
     44 H14         -5.2310     2.2030    -3.2480 ho         1 VPA       0.417000
     45 H15         -4.2800    -1.1130    -3.4040 h1         1 VPA       0.055700
     46 H16         -6.4000    -0.8960    -3.3000 ho         1 VPA       0.415000
     47 H17         -4.4350    -1.0420    -0.3680 h1         1 VPA       0.066700
     48 H18         -5.5190    -3.0130    -1.4840 h1         1 VPA       0.049700
     49 H19         -3.9810    -3.3610    -2.2850 h1         1 VPA       0.049700
     50 H20         -3.9240    -5.4840    -1.1450 h2         1 VPA       0.040700
     51 H21         -7.2400    -6.5900    -0.2000 h1         1 VPA       0.059200
     52 H22         -5.7920    -7.0290    -1.1230 h1         1 VPA       0.059200
     53 H23         -5.9930    -6.8280     1.9040 h1         1 VPA       0.059700
     54 H24         -6.6910    -8.8130     1.5510 ho         1 VPA       0.411000
     55 H25         -3.6760    -7.6640     0.1220 h1         1 VPA       0.057700
     56 H26         -2.9740    -8.4960     1.9350 ho         1 VPA       0.415000
     57 H27         -4.0390    -5.2100     1.8790 h1         1 VPA       0.068700
     58 H28         -1.9320    -5.1690     1.6900 ho         1 VPA       0.419000
@<TRIPOS>BOND
     1    18    17 1
     2    16    15 1
     3    15    17 1
     4    15    13 1
     5    17    19 1
     6    19    20 1
     7    19    12 1
     8    20    21 1
     9    30    29 1
    10    14    13 1
    11    13    11 1
    12    21    22 1
    13    12    11 1
    14    22    29 1
    15    22    23 1
    16    11    10 1
    17    29    27 1
    18    27    28 1
    19    27    25 1
    20    23    24 1
    21    24    25 1
    22    10     1 1
    23     3     1 2
    24    25    26 1
    25     1     2 1
    26     8     9 ar
    27     8     4 ar
    28     2     4 1
    29     9     7 ar
    30     4     5 ar
    31     7     6 ar
    32     5     6 ar
    33     2    31 1
    34     2    32 1
    35     3    33 1
    36     5    34 1
    37     6    35 1
    38     7    36 1
    39     8    37 1
    40     9    38 1
    41    10    39 1
    42    11    40 1
    43    13    41 1
    44    14    42 1
    45    15    43 1
    46    16    44 1
    47    17    45 1
    48    18    46 1
    49    19    47 1
    50    20    48 1
    51    20    49 1
    52    22    50 1
    53    24    51 1
    54    24    52 1
    55    25    53 1
    56    26    54 1
    57    27    55 1
    58    28    56 1
    59    29    57 1
    60    30    58 1
@<TRIPOS>SUBSTRUCTURE
     1 VPA         1 TEMP              0 ****  ****    0 ROOT
