@<TRIPOS>MOLECULE
molecule
   22    21     1     0     0
SMALL
bcc


@<TRIPOS>ATOM
      1 CAA          0.0000     0.0000     0.0000 c3         1 VPM      -0.097100
      2 CAK          1.5300     0.0000     0.0000 c3         1 VPM      -0.077700
      3 CAB          2.0400     1.2490    -0.7220 c3         1 VPM      -0.097100
      4 CAL          2.0410     0.0000     1.4410 c3         1 VPM       0.072800
      5 CAJ          1.4410     1.1630     2.1870 c          1 VPM       0.941600
      6 OAF          1.6620     2.4180     1.7650 o          1 VPM      -0.850300
      7 OAD          0.7590     0.9670     3.1660 o          1 VPM      -0.850300
      8 OAG          1.6630    -1.2220     2.0800 oh         1 VPM      -0.567800
      9 CAH          3.5660     0.1250     1.4420 c3         1 VPM      -0.190400
     10 CAI          4.0690     0.1250     2.8630 c          1 VPM       0.892600
     11 OAE          3.2880     0.0330     3.7810 o          1 VPM      -0.859300
     12 OAC          5.3840     0.2260     3.1090 o          1 VPM      -0.859300
     13 H1          -0.3610     0.9730     0.3120 hc         1 VPM       0.027700
     14 H2          -0.3610    -0.7560     0.6860 hc         1 VPM       0.027700
     15 H3          -0.3610    -0.2160    -0.9980 hc         1 VPM       0.027700
     16 H4           1.8910    -0.8840    -0.5110 hc         1 VPM      -0.010300
     17 H5           1.4470     1.4190    -1.6120 hc         1 VPM       0.027700
     18 H6           3.0770     1.1070    -1.0010 hc         1 VPM       0.027700
     19 H7           1.9570     2.1060    -0.0640 hc         1 VPM       0.027700
     20 H9           2.1430    -1.9380     1.6990 ho         1 VPM       0.344000
     21 H10          3.8530     1.0510     0.9580 hc         1 VPM       0.020700
     22 H11          3.9980    -0.7110     0.9060 hc         1 VPM       0.020700
@<TRIPOS>BOND
     1     3     2 1
     2     1     2 1
     3     8     4 1
     4     2     4 1
     5     4     5 1
     6     4     9 1
     7     7     5 1
     8     5     6 1
     9    11    10 1
    10    12    10 1
    11    10     9 1
    12     1    13 1
    13     1    14 1
    14     1    15 1
    15     2    16 1
    16     3    17 1
    17     3    18 1
    18     3    19 1
    19     8    20 1
    20     9    21 1
    21     9    22 1
@<TRIPOS>SUBSTRUCTURE
     1 VPM         1 TEMP              0 ****  ****    0 ROOT
