@<TRIPOS>MOLECULE
VPM
   22    21     1     0     0
SMALL
bcc


@<TRIPOS>ATOM
      1 CAA         0.4160   -0.4310   -0.2300 c3        1 VPM     -0.081100
      2 CAK         1.7930    0.0150    0.2110 c3        1 VPM     -0.072700
      3 CAB         2.3090    1.1010   -0.7080 c3        1 VPM     -0.081100
      4 CAL         1.7900    0.4780    1.6880 c3        1 VPM      0.079800
      5 CAJ         1.0870    1.8620    1.8900 c         1 VPM      0.924600
      6 OAF         0.0720    2.1650    1.1920 o         1 VPM     -0.867300
      7 OAD         1.5630    2.6620    2.7480 o         1 VPM     -0.867300
      8 OAG         1.0340   -0.4550    2.4600 oh        1 VPM     -0.634800
      9 CAH         3.2310    0.5400    2.2090 c3        1 VPM     -0.194400
     10 CAI         4.0490   -0.7420    2.0740 c         1 VPM      0.897600
     11 OAE         3.5270   -1.8700    2.3550 o         1 VPM     -0.887300
     12 OAC         5.2660   -0.6550    1.7160 o         1 VPM     -0.887300
     13 H1          0.4310   -0.7590   -1.2990 hc        1 VPM      0.020200
     14 H2         -0.3060    0.4150   -0.1080 hc        1 VPM      0.020200
     15 H3          0.0720   -1.2850    0.4010 hc        1 VPM      0.020200
     16 H4          2.4890   -0.8720    0.1520 hc        1 VPM      0.045700
     17 H5          3.3660    1.3560   -0.4530 hc        1 VPM      0.020200
     18 H6          1.6780    2.0170   -0.6030 hc        1 VPM      0.020200
     19 H7          2.2770    0.7580   -1.7720 hc        1 VPM      0.020200
     20 H9          1.5880   -1.2480    2.5390 ho        1 VPM      0.418000
     21 H10         3.7630    1.3740    1.6860 hc        1 VPM      0.043200
     22 H11         3.1810    0.8030    3.2980 hc        1 VPM      0.043200
@<TRIPOS>BOND
     1    1    2 1   
     2    1   13 1   
     3    1   14 1   
     4    1   15 1   
     5    2    3 1   
     6    2    4 1   
     7    2   16 1   
     8    3   17 1   
     9    3   18 1   
    10    3   19 1   
    11    4    5 1   
    12    4    8 1   
    13    4    9 1   
    14    5    6 1   
    15    5    7 1   
    16    8   20 1   
    17    9   10 1   
    18    9   21 1   
    19    9   22 1   
    20   10   11 1   
    21   10   12 1   
@<TRIPOS>SUBSTRUCTURE
     1 VPM         1 TEMP              0 ****  ****    0 ROOT
