@<TRIPOS>MOLECULE
molecule
   64    66     1     0     0
SMALL
bcc


@<TRIPOS>ATOM
      1 S            0.0000     0.0000     0.0000 ss         1 VPP      -0.295200
      2 O01          0.5170     2.6870     0.0690 o          1 VPP      -0.822300
      3 O02          1.3180     0.7010     3.8720 o          1 VPP      -0.838300
      4 O03          0.6010    -1.2840     4.5290 o          1 VPP      -0.838300
      5 O06          4.0350     2.5630    -2.3630 o          1 VPP      -0.647100
      6 O04          8.4560     3.2450    -1.2700 o          1 VPP      -0.587100
      7 O05         10.3520     4.2080    -2.2830 o          1 VPP      -0.504500
      8 O           11.4120     5.5750    -4.4040 o          1 VPP      -0.601500
      9 N02          2.1220     0.0000     1.4630 n7         1 VPP      -0.743200
     10 N03          3.8550     1.2630    -0.5740 ns         1 VPP      -0.505900
     11 N04          6.6480     2.7620    -2.4650 ns         1 VPP      -0.568900
     12 N01          8.4190     3.9910    -3.3610 n          1 VPP      -0.500400
     13 N            9.3870     5.7870    -5.3030 n          1 VPP      -0.494800
     14 C17          1.8410     0.0000     0.0000 c3         1 VPP       0.265600
     15 C19         -0.1560    -1.0400     1.5060 c3         1 VPP       0.063100
     16 C18          1.2300    -0.9250     2.1680 c3         1 VPP       0.063500
     17 C20          2.3930     1.2610    -0.6680 c3         1 VPP       0.019700
     18 C01          1.8430     2.4790     0.0280 c          1 VPP       0.907600
     19 C02         -1.2460    -0.4920     2.4290 c3         1 VPP      -0.071100
     20 C03         -0.4540    -2.4940     1.1290 c3         1 VPP      -0.071100
     21 C04          1.0530    -0.4430     3.5850 c          1 VPP       0.898600
     22 C21          4.5860     1.9480    -1.4750 c          1 VPP       0.656100
     23 CA           6.0910     1.9510    -1.3790 c3         1 VPP       0.090000
     24 C05          6.6040     0.5390    -1.4910 ca         1 VPP      -0.083300
     25 C07          6.7240    -0.0560    -2.7340 ca         1 VPP      -0.107000
     26 C08          6.9590    -0.1610    -0.3540 ca         1 VPP      -0.107000
     27 C09          7.6530     4.1980    -4.5910 c3         1 VPP       0.070000
     28 C10          7.9440     5.5770    -5.1760 c3         1 VPP       0.089000
     29 C11          9.6760     4.4640    -3.2570 c          1 VPP       0.635500
     30 C12          7.1950    -1.3520    -2.8370 ca         1 VPP      -0.133000
     31 C13          7.4300    -1.4560    -0.4570 ca         1 VPP      -0.133000
     32 C14         10.2280     5.3120    -4.3610 c          1 VPP       0.636500
     33 C15          9.9190     6.5060    -6.4630 c3         1 VPP       0.104000
     34 C16          7.5460    -2.0520    -1.6980 ca         1 VPP      -0.137000
     35 C           10.2110     5.5130    -7.5890 c3         1 VPP      -0.114100
     36 O07          2.5950     3.2690     0.5480 o          1 VPP      -0.822300
     37 H3           3.0730    -0.2690     1.6200 hn         1 VPP       0.321800
     38 H5           4.3080     0.7950     0.1850 hn         1 VPP       0.309500
     39 H6           6.1050     2.9350    -3.2880 hn         1 VPP       0.328500
     40 H7           2.2270    -0.8980    -0.4670 h2         1 VPP      -0.007300
     41 H8           1.6890    -1.9050     2.1830 h1         1 VPP      -0.002300
     42 H9           2.0970     1.2760    -1.7110 h1         1 VPP       0.063700
     43 H10         -2.1810    -0.4280     1.8860 hc         1 VPP       0.034700
     44 H11         -0.9620     0.4940     2.7770 hc         1 VPP       0.034700
     45 H12         -1.3660    -1.1530     3.2790 hc         1 VPP       0.034700
     46 H13         -1.4260    -2.5520     0.6560 hc         1 VPP       0.034700
     47 H14          0.3040    -2.8510     0.4420 hc         1 VPP       0.034700
     48 H15         -0.4500    -3.1070     2.0220 hc         1 VPP       0.034700
     49 H16          6.3910     2.3690    -0.4260 h1         1 VPP       0.111700
     50 H17          6.4490     0.4930    -3.6260 ha         1 VPP       0.136500
     51 H18          6.8680     0.3060     0.6200 ha         1 VPP       0.136500
     52 H19          7.9280     3.4390    -5.3130 h1         1 VPP       0.070200
     53 H20          6.5960     4.1210    -4.3690 h1         1 VPP       0.070200
     54 H21          7.5300     6.3350    -4.5230 h1         1 VPP       0.060700
     55 H22          7.4860     5.6520    -6.1550 h1         1 VPP       0.060700
     56 H23          7.2870    -1.8180    -3.8100 ha         1 VPP       0.120000
     57 H24          7.7070    -2.0050     0.4350 ha         1 VPP       0.120000
     58 H25         10.8340     7.0140    -6.1830 h1         1 VPP       0.057700
     59 H26          9.1920     7.2330    -6.8020 h1         1 VPP       0.057700
     60 H27          7.9140    -3.0670    -1.7800 ha         1 VPP       0.114000
     61 H28         10.8150     4.6990    -7.2050 hc         1 VPP       0.040033
     62 H29          9.2790     5.1200    -7.9740 hc         1 VPP       0.040033
     63 H30         10.7470     6.0160    -8.3840 hc         1 VPP       0.040033
     64 C06          7.8630     3.3290    -2.3260 c          1 VPP       0.771100
@<TRIPOS>BOND
     1     3    21 1
     2     4    21 1
     3    21    16 1
     4    36    18 1
     5     9    16 1
     6     9    14 1
     7    16    15 1
     8    25    30 ar
     9    25    24 ar
    10     6    64 2
    11    30    34 ar
    12    18    17 1
    13    18     2 1
    14    19    15 1
    15    10    17 1
    16    10    22 1
    17    23    24 1
    18    23    22 1
    19    23    11 1
    20    64    11 1
    21    64    12 1
    22    27    28 1
    23    27    12 1
    24    15    20 1
    25    15     1 1
    26    14    17 1
    27    14     1 1
    28    24    26 ar
    29    34    31 ar
    30    28    13 1
    31    22     5 2
    32    12    29 1
    33    26    31 ar
    34    13    33 1
    35    13    32 1
    36    35    33 1
    37    29     7 2
    38    29    32 1
    39    32     8 2
    40     9    37 1
    41    10    38 1
    42    11    39 1
    43    14    40 1
    44    16    41 1
    45    17    42 1
    46    19    43 1
    47    19    44 1
    48    19    45 1
    49    20    46 1
    50    20    47 1
    51    20    48 1
    52    23    49 1
    53    25    50 1
    54    26    51 1
    55    27    52 1
    56    27    53 1
    57    28    54 1
    58    28    55 1
    59    30    56 1
    60    31    57 1
    61    33    58 1
    62    33    59 1
    63    34    60 1
    64    35    61 1
    65    35    62 1
    66    35    63 1
@<TRIPOS>SUBSTRUCTURE
     1 VPP         1 TEMP              0 ****  ****    0 ROOT
