@<TRIPOS>MOLECULE
VPP
   64    66     1     0     0
SMALL
bcc


@<TRIPOS>ATOM
      1 S            0.0000     0.0000     0.0000 ss         1 VPP      -0.378200
      2 O01          0.5170     2.6870     0.0690 o          1 VPP      -0.868300
      3 O02          1.3180     0.7010     3.8720 o          1 VPP      -0.884800
      4 O03          0.6010    -1.2840     4.5290 o          1 VPP      -0.884800
      5 O06          4.0350     2.5630    -2.3630 o          1 VPP      -0.695100
      6 O04          8.4560     3.2450    -1.2700 o          1 VPP      -0.630100
      7 O05         10.3520     4.2080    -2.2830 o          1 VPP      -0.534500
      8 O           11.4120     5.5750    -4.4040 o          1 VPP      -0.639500
      9 N02          2.1220     0.0000     1.4630 n7         1 VPP      -0.500200
     10 N03          3.8550     1.2630    -0.5740 ns         1 VPP      -0.073900
     11 N04          6.6480     2.7620    -2.4650 ns         1 VPP      -0.180900
     12 N01          8.4190     3.9910    -3.3610 n          1 VPP      -0.147400
     13 N            9.3870     5.7870    -5.3030 n          1 VPP      -0.170800
     14 C17          1.8410     0.0000     0.0000 c3         1 VPP       0.252600
     15 C19         -0.1560    -1.0400     1.5060 c3         1 VPP       0.097100
     16 C18          1.2300    -0.9250     2.1680 c3         1 VPP       0.006500
     17 C20          2.3930     1.2610    -0.6680 c3         1 VPP      -0.096300
     18 C01          1.8430     2.4790     0.0280 c          1 VPP       0.988600
     19 C02         -1.2460    -0.4920     2.4290 c3         1 VPP      -0.000100
     20 C03         -0.4540    -2.4940     1.1290 c3         1 VPP      -0.000100
     21 C04          1.0530    -0.4430     3.5850 c          1 VPP       0.980600
     22 C21          4.5860     1.9480    -1.4750 c          1 VPP       0.554100
     23 CA           6.0910     1.9510    -1.3790 c3         1 VPP       0.000000
     24 C05          6.6040     0.5390    -1.4910 ca         1 VPP      -0.088300
     25 C07          6.7240    -0.0560    -2.7340 ca         1 VPP      -0.083000
     26 C08          6.9590    -0.1610    -0.3540 ca         1 VPP      -0.083000
     27 C09          7.6530     4.1980    -4.5910 c3         1 VPP       0.011000
     28 C10          7.9440     5.5770    -5.1760 c3         1 VPP       0.047000
     29 C11          9.6760     4.4640    -3.2570 c          1 VPP       0.543500
     30 C12          7.1950    -1.3520    -2.8370 ca         1 VPP      -0.105500
     31 C13          7.4300    -1.4560    -0.4570 ca         1 VPP      -0.105500
     32 C14         10.2280     5.3120    -4.3610 c          1 VPP       0.559500
     33 C15          9.9190     6.5060    -6.4630 c3         1 VPP       0.054000
     34 C16          7.5460    -2.0520    -1.6980 ca         1 VPP      -0.114000
     35 C           10.2110     5.5130    -7.5890 c3         1 VPP      -0.017100
     36 O07          2.5950     3.2690     0.5480 o          1 VPP      -0.868300
     37 H3           3.0730    -0.2690     1.6200 hn         1 VPP       0.221800
     38 H5           4.3080     0.7950     0.1850 hn         1 VPP       0.162500
     39 H6           6.1050     2.9350    -3.2880 hn         1 VPP       0.196500
     40 H7           2.2270    -0.8980    -0.4670 h2         1 VPP      -0.014300
     41 H8           1.6890    -1.9050     2.1830 h1         1 VPP      -0.008300
     42 H9           2.0970     1.2760    -1.7110 h1         1 VPP       0.050700
     43 H10         -2.1810    -0.4280     1.8860 hc         1 VPP       0.011033
     44 H11         -0.9620     0.4940     2.7770 hc         1 VPP       0.011033
     45 H12         -1.3660    -1.1530     3.2790 hc         1 VPP       0.011033
     46 H13         -1.4260    -2.5520     0.6560 hc         1 VPP       0.011033
     47 H14          0.3040    -2.8510     0.4420 hc         1 VPP       0.011033
     48 H15         -0.4500    -3.1070     2.0220 hc         1 VPP       0.011033
     49 H16          6.3910     2.3690    -0.4260 h1         1 VPP       0.083700
     50 H17          6.4490     0.4930    -3.6260 ha         1 VPP       0.111000
     51 H18          6.8680     0.3060     0.6200 ha         1 VPP       0.111000
     52 H19          7.9280     3.4390    -5.3130 h1         1 VPP       0.042200
     53 H20          6.5960     4.1210    -4.3690 h1         1 VPP       0.042200
     54 H21          7.5300     6.3350    -4.5230 h1         1 VPP       0.029200
     55 H22          7.4860     5.6520    -6.1550 h1         1 VPP       0.029200
     56 H23          7.2870    -1.8180    -3.8100 ha         1 VPP       0.095000
     57 H24          7.7070    -2.0050     0.4350 ha         1 VPP       0.095000
     58 H25         10.8340     7.0140    -6.1830 h1         1 VPP       0.029200
     59 H26          9.1920     7.2330    -6.8020 h1         1 VPP       0.029200
     60 H27          7.9140    -3.0670    -1.7800 ha         1 VPP       0.090000
     61 H28         10.8150     4.6990    -7.2050 hc         1 VPP       0.007033
     62 H29          9.2790     5.1200    -7.9740 hc         1 VPP       0.007033
     63 H30         10.7470     6.0160    -8.3840 hc         1 VPP       0.007033
     64 C06          7.8630     3.3290    -2.3260 c          1 VPP       0.567100
@<TRIPOS>BOND
     1     1    14 1   
     2     1    15 1   
     3     2    18 1   
     4     3    21 1   
     5     4    21 1   
     6     5    22 2   
     7     6    64 2   
     8     7    29 2   
     9     8    32 2   
    10     9    14 1   
    11     9    16 1   
    12     9    37 1   
    13    10    17 1   
    14    10    22 1   
    15    10    38 1   
    16    11    23 1   
    17    11    39 1   
    18    11    64 1   
    19    12    27 1   
    20    12    29 1   
    21    12    64 1   
    22    13    28 1   
    23    13    32 1   
    24    13    33 1   
    25    14    17 1   
    26    14    40 1   
    27    15    16 1   
    28    15    19 1   
    29    15    20 1   
    30    16    21 1   
    31    16    41 1   
    32    17    18 1   
    33    17    42 1   
    34    18    36 1   
    35    19    43 1   
    36    19    44 1   
    37    19    45 1   
    38    20    46 1   
    39    20    47 1   
    40    20    48 1   
    41    22    23 1   
    42    23    24 1   
    43    23    49 1   
    44    24    25 ar  
    45    24    26 ar  
    46    25    30 ar  
    47    25    50 1   
    48    26    31 ar  
    49    26    51 1   
    50    27    28 1   
    51    27    52 1   
    52    27    53 1   
    53    28    54 1   
    54    28    55 1   
    55    29    32 1   
    56    30    34 ar  
    57    30    56 1   
    58    31    34 ar  
    59    31    57 1   
    60    33    35 1   
    61    33    58 1   
    62    33    59 1   
    63    34    60 1   
    64    35    61 1   
    65    35    62 1   
    66    35    63 1   
@<TRIPOS>SUBSTRUCTURE
     1 VPP         1 TEMP              0 ****  ****    0 ROOT
