@<TRIPOS>MOLECULE
VPR
   28    27     1     0     0
SMALL
bcc


@<TRIPOS>ATOM
      1 C5           0.0000     0.0000     0.0000 c3         1 VPR       0.011900
      2 C4           1.5300     0.0000     0.0000 c3         1 VPR      -0.031400
      3 C3           2.0400     0.0000     1.4420 c3         1 VPR      -0.024900
      4 C2           3.5690    -0.0000     1.4410 c3         1 VPR      -0.115700
      5 C3A          4.0800     0.0010     2.8830 c3         1 VPR      -0.024900
      6 C4A          3.6860     1.3120     3.5640 c3         1 VPR      -0.031400
      7 C5A          4.2900     1.3600     4.9680 c3         1 VPR       0.011900
      8 C1           4.0720    -1.2290     0.7310 c          1 VPR       0.318100
      9 N            5.1890    -1.1640    -0.0200 nz         1 VPR       0.192600
     10 O            3.4710    -2.2770     0.8330 o          1 VPR      -0.392100
     11 H51         -0.3610     0.8560     0.5560 hc         1 VPR       0.013700
     12 H52         -0.3610    -0.9100     0.4640 hc         1 VPR       0.013700
     13 H53         -0.3610     0.0540    -1.0200 hc         1 VPR       0.013700
     14 H41          1.8910     0.8840    -0.5110 hc         1 VPR       0.013450
     15 H42          1.8910    -0.8840    -0.5110 hc         1 VPR       0.013450
     16 H31          1.6790     0.8850     1.9520 hc         1 VPR       0.040200
     17 H32          1.6790    -0.8840     1.9530 hc         1 VPR       0.040200
     18 H2           3.9290     0.8840     0.9300 hc         1 VPR       0.046700
     19 H3A1         5.1590    -0.0960     2.8830 hc         1 VPR       0.040200
     20 H3A2         3.6420    -0.8310     3.4210 hc         1 VPR       0.040200
     21 H4A1         2.6070     1.3720     3.6330 hc         1 VPR       0.013450
     22 H4A2         4.0580     2.1470     2.9830 hc         1 VPR       0.013450
     23 H5A1         5.3700     1.3230     4.8980 hc         1 VPR       0.013700
     24 H5A2         3.9910     2.2780     5.4590 hc         1 VPR       0.013700
     25 H5A3         3.9370     0.5120     5.5430 hc         1 VPR       0.013700
     26 HN1          5.9750    -1.4590     0.5250 hn         1 VPR       0.248133
     27 HN2          5.0910    -1.7640    -0.8160 hn         1 VPR       0.248133
     28 HN3          5.3310    -0.2220    -0.3280 hn         1 VPR       0.248133
@<TRIPOS>BOND
     1     1     2 1   
     2     1    11 1   
     3     1    12 1   
     4     1    13 1   
     5     2     3 1   
     6     2    14 1   
     7     2    15 1   
     8     3     4 1   
     9     3    16 1   
    10     3    17 1   
    11     4     5 1   
    12     4     8 1   
    13     4    18 1   
    14     5     6 1   
    15     5    19 1   
    16     5    20 1   
    17     6     7 1   
    18     6    21 1   
    19     6    22 1   
    20     7    23 1   
    21     7    24 1   
    22     7    25 1   
    23     8     9 1   
    24     8    10 2   
    25     9    26 1   
    26     9    27 1   
    27     9    28 1   
@<TRIPOS>SUBSTRUCTURE
     1 VPR         1 TEMP              0 ****  ****    0 ROOT
