@<TRIPOS>MOLECULE
VPU
   53    54     1     0     0
SMALL
bcc


@<TRIPOS>ATOM
      1 C3           0.0000     0.0000     0.0000 c3         1 VPU       0.008900
      2 C2           1.5290     0.0000     0.0000 c3         1 VPU      -0.031400
      3 C1           2.0400     0.0000     1.4430 c3         1 VPU      -0.016400
      4 CAH          3.5700     0.0010     1.4430 c3         1 VPU      -0.095400
      5 CAG          4.0730     0.0020     2.8630 c          1 VPU       0.589100
      6 OAN          3.2850     0.0010     3.7850 o          1 VPU      -0.641100
      7 NAI          5.3970     0.0010     3.1090 ns         1 VPU      -0.176900
      8 CAB          5.8850     0.0020     4.4910 c3         1 VPU      -0.012600
      9 CAC          7.2920     0.6130     4.5410 c3         1 VPU       0.156100
     10 OAJ          7.2190     2.0080     4.2430 oh         1 VPU      -0.577800
     11 CAD          7.8660     0.4190     5.9480 c3         1 VPU       0.137100
     12 OAK          9.1800     0.9790     6.0080 oh         1 VPU      -0.583800
     13 CAE          7.9330    -1.0770     6.2690 c3         1 VPU       0.171100
     14 CAF          8.4720    -1.2720     7.6870 c3         1 VPU       0.223400
     15 OAM          8.6440    -2.6660     7.9440 oh         1 VPU      -0.584800
     16 OAL          6.6200    -1.6390     6.1740 os         1 VPU      -0.397400
     17 CAA          5.9670    -1.4190     5.0040 c2         1 VPU       0.438600
     18 NAY          5.4310    -2.3930     4.3480 n2         1 VPU      -0.323200
     19 OAQ          5.5070    -3.5300     4.7790 os         1 VPU      -0.124600
     20 CAP          4.9270    -4.5000     4.0460 c          1 VPU       0.641100
     21 OAR          4.3620    -4.2200     3.0070 o          1 VPU      -0.598000
     22 NAO          4.9750    -5.7790     4.4650 ns         1 VPU       0.002900
     23 CAS          4.2910    -6.7740     3.7570 ca         1 VPU      -0.091400
     24 CAT          4.1930    -6.7000     2.3730 ca         1 VPU      -0.114500
     25 CAU          3.5180    -7.6820     1.6760 ca         1 VPU      -0.083500
     26 CAV          2.9400    -8.7400     2.3540 ca         1 VPU      -0.110000
     27 CAW          3.0350    -8.8160     3.7320 ca         1 VPU      -0.083500
     28 CAX          3.7140    -7.8390     4.4340 ca         1 VPU      -0.114500
     29 H3          -0.3610    -0.0230    -1.0210 hc         1 VPU       0.000367
     30 H3A         -0.3610    -0.8730     0.5310 hc         1 VPU       0.000367
     31 H3B         -0.3610     0.8960     0.4900 hc         1 VPU       0.000367
     32 H2           1.8910    -0.8840    -0.5110 hc         1 VPU       0.008200
     33 H2A          1.8910     0.8840    -0.5110 hc         1 VPU       0.008200
     34 H1           1.6780     0.8840     1.9530 hc         1 VPU       0.031700
     35 H1A          1.6790    -0.8850     1.9530 hc         1 VPU       0.031700
     36 HAH          3.9310    -0.8840     0.9320 hc         1 VPU       0.027700
     37 HAHA         3.9300     0.8850     0.9320 hc         1 VPU       0.027700
     38 HNAI         6.0470    -0.0110     2.3490 hn         1 VPU       0.169500
     39 HAB          5.2170     0.5780     5.1190 h1         1 VPU       0.083700
     40 HAC          7.9280     0.1150     3.8190 h1         1 VPU       0.016700
     41 HOAJ         7.8320     2.2160     3.5570 ho         1 VPU       0.398000
     42 HAD          7.2250     0.9130     6.6680 h1         1 VPU       0.028700
     43 HOAK         9.1470     1.8140     6.4450 ho         1 VPU       0.402000
     44 HAE          8.5870    -1.5680     5.5580 h1         1 VPU       0.031700
     45 HAF          7.7700    -0.8570     8.4000 h1         1 VPU       0.000700
     46 HAFA         9.4250    -0.7660     7.7840 h1         1 VPU       0.000700
     47 HOAM         9.0780    -2.7810     8.7730 ho         1 VPU       0.391000
     48 HNAO         5.5200    -6.0230     5.2680 hn         1 VPU       0.169500
     49 HAT          4.6460    -5.8720     1.8410 ha         1 VPU       0.126000
     50 HAU          3.4420    -7.6250     0.5970 ha         1 VPU       0.103500
     51 HAV          2.4090    -9.5080     1.8050 ha         1 VPU       0.103000
     52 HAW          2.5830    -9.6470     4.2610 ha         1 VPU       0.103500
     53 HAX          3.7880    -7.9000     5.5130 ha         1 VPU       0.126000
@<TRIPOS>BOND
     1     1     2 1   
     2     1    29 1   
     3     1    30 1   
     4     1    31 1   
     5     2     3 1   
     6     2    32 1   
     7     2    33 1   
     8     3     4 1   
     9     3    34 1   
    10     3    35 1   
    11     4     5 1   
    12     4    36 1   
    13     4    37 1   
    14     5     6 2   
    15     5     7 1   
    16     7     8 1   
    17     7    38 1   
    18     8     9 1   
    19     8    17 1   
    20     8    39 1   
    21     9    10 1   
    22     9    11 1   
    23     9    40 1   
    24    10    41 1   
    25    11    12 1   
    26    11    13 1   
    27    11    42 1   
    28    12    43 1   
    29    13    14 1   
    30    13    16 1   
    31    13    44 1   
    32    14    15 1   
    33    14    45 1   
    34    14    46 1   
    35    15    47 1   
    36    16    17 1   
    37    17    18 2   
    38    18    19 1   
    39    19    20 1   
    40    20    21 2   
    41    20    22 1   
    42    22    23 1   
    43    22    48 1   
    44    23    24 ar  
    45    23    28 ar  
    46    24    25 ar  
    47    24    49 1   
    48    25    26 ar  
    49    25    50 1   
    50    26    27 ar  
    51    26    51 1   
    52    27    28 ar  
    53    27    52 1   
    54    28    53 1   
@<TRIPOS>SUBSTRUCTURE
     1 VPU         1 TEMP              0 ****  ****    0 ROOT
