@<TRIPOS>MOLECULE
molecule
   53    54     1     0     0
SMALL
bcc


@<TRIPOS>ATOM
      1 C3           0.0000     0.0000     0.0000 c3         1 VPU      -0.090100
      2 C2           1.5290     0.0000     0.0000 c3         1 VPU      -0.087400
      3 C1           2.0400     0.0000     1.4430 c3         1 VPU      -0.065400
      4 CAH          3.5700     0.0010     1.4430 c3         1 VPU      -0.153400
      5 CAG          4.0730     0.0020     2.8630 c          1 VPU       0.675100
      6 OAN          3.2850     0.0010     3.7850 o          1 VPU      -0.599100
      7 NAI          5.3970     0.0010     3.1090 ns         1 VPU      -0.572900
      8 CAB          5.8850     0.0020     4.4910 c3         1 VPU       0.091400
      9 CAC          7.2920     0.6130     4.5410 c3         1 VPU       0.115100
     10 OAJ          7.2190     2.0080     4.2430 oh         1 VPU      -0.592800
     11 CAD          7.8660     0.4190     5.9480 c3         1 VPU       0.100100
     12 OAK          9.1800     0.9790     6.0080 oh         1 VPU      -0.601800
     13 CAE          7.9330    -1.0770     6.2690 c3         1 VPU       0.152100
     14 CAF          8.4720    -1.2720     7.6870 c3         1 VPU       0.150400
     15 OAM          8.6440    -2.6660     7.9440 oh         1 VPU      -0.599800
     16 OAL          6.6200    -1.6390     6.1740 os         1 VPU      -0.424400
     17 CAA          5.9670    -1.4190     5.0040 c2         1 VPU       0.505600
     18 NAY          5.4310    -2.3930     4.3480 n2         1 VPU      -0.414200
     19 OAQ          5.5070    -3.5300     4.7790 os         1 VPU      -0.130600
     20 CAP          4.9270    -4.5000     4.0460 c          1 VPU       0.750100
     21 OAR          4.3620    -4.2200     3.0070 o          1 VPU      -0.550000
     22 NAO          4.9750    -5.7790     4.4650 ns         1 VPU      -0.459100
     23 CAS          4.2910    -6.7740     3.7570 ca         1 VPU       0.066600
     24 CAT          4.1930    -6.7000     2.3730 ca         1 VPU      -0.141000
     25 CAU          3.5180    -7.6820     1.6760 ca         1 VPU      -0.113000
     26 CAV          2.9400    -8.7400     2.3540 ca         1 VPU      -0.141000
     27 CAW          3.0350    -8.8160     3.7320 ca         1 VPU      -0.113000
     28 CAX          3.7140    -7.8390     4.4340 ca         1 VPU      -0.141000
     29 H3          -0.3610    -0.2400    -0.9930 hc         1 VPU       0.033700
     30 H3A         -0.3610     0.9800     0.2880 hc         1 VPU       0.033700
     31 H3B         -0.3610    -0.7400     0.7040 hc         1 VPU       0.033700
     32 H2           1.8910     0.8840    -0.5110 hc         1 VPU       0.036700
     33 H2A          1.8910    -0.8840    -0.5110 hc         1 VPU       0.036700
     34 H1           1.6790    -0.8850     1.9530 hc         1 VPU       0.060700
     35 H1A          1.6780     0.8840     1.9530 hc         1 VPU       0.060700
     36 HAH          3.9300     0.8850     0.9320 hc         1 VPU       0.060700
     37 HAHA         3.9310    -0.8840     0.9320 hc         1 VPU       0.060700
     38 HNAI         6.0470    -0.0000     2.3490 hn         1 VPU       0.314500
     39 HAB          5.2170     0.5780     5.1190 h1         1 VPU       0.118700
     40 HAC          7.9280     0.1150     3.8190 h1         1 VPU       0.052700
     41 HOAJ         7.8320     2.2160     3.5570 ho         1 VPU       0.413000
     42 HAD          7.2250     0.9130     6.6680 h1         1 VPU       0.063700
     43 HOAK         9.1500     1.8050     6.4620 ho         1 VPU       0.417000
     44 HAE          8.5870    -1.5680     5.5580 h1         1 VPU       0.069700
     45 HAF          7.7700    -0.8570     8.4000 h1         1 VPU       0.038700
     46 HAFA         9.4250    -0.7660     7.7840 h1         1 VPU       0.038700
     47 HOAM         9.0460    -2.7830     8.7890 ho         1 VPU       0.406000
     48 HNAO         5.5220    -6.0230     5.2670 hn         1 VPU       0.336500
     49 HAT          4.6460    -5.8720     1.8410 ha         1 VPU       0.149500
     50 HAU          3.4420    -7.6250     0.5970 ha         1 VPU       0.133000
     51 HAV          2.4090    -9.5080     1.8050 ha         1 VPU       0.130000
     52 HAW          2.5830    -9.6470     4.2610 ha         1 VPU       0.133000
     53 HAX          3.7880    -7.9000     5.5130 ha         1 VPU       0.149500
@<TRIPOS>BOND
     1     1     2 1
     2     2     3 1
     3     3     4 1
     4     4     5 1
     5     5     6 2
     6     5     7 1
     7     7     8 1
     8     8     9 1
     9     8    17 1
    10     9    10 1
    11     9    11 1
    12    11    12 1
    13    11    13 1
    14    13    14 1
    15    13    16 1
    16    14    15 1
    17    16    17 1
    18    17    18 2
    19    18    19 1
    20    19    20 1
    21    20    21 2
    22    20    22 1
    23    22    23 1
    24    23    24 ar
    25    23    28 ar
    26    24    25 ar
    27    25    26 ar
    28    26    27 ar
    29    27    28 ar
    30     1    29 1
    31     1    30 1
    32     1    31 1
    33     2    32 1
    34     2    33 1
    35     3    34 1
    36     3    35 1
    37     4    36 1
    38     4    37 1
    39     7    38 1
    40     8    39 1
    41     9    40 1
    42    10    41 1
    43    11    42 1
    44    12    43 1
    45    13    44 1
    46    14    45 1
    47    14    46 1
    48    15    47 1
    49    22    48 1
    50    24    49 1
    51    25    50 1
    52    26    51 1
    53    27    52 1
    54    28    53 1
@<TRIPOS>SUBSTRUCTURE
     1 VPU         1 TEMP              0 ****  ****    0 ROOT
