@<TRIPOS>MOLECULE
VPX
   69    75     1     0     0
SMALL
bcc


@<TRIPOS>ATOM
      1 CAA          0.0000     0.0000     0.0000 c3         1 VPX      -0.123000
      2 CAO          1.5300     0.0000     0.0000 c3         1 VPX       0.093000
      3 OAV          2.0150     0.0000     1.3680 os         1 VPX      -0.266000
      4 CAX          3.3500     0.0010     1.5440 c2         1 VPX       0.336000
      5 OAC          4.0890     0.0000     0.5790 o          1 VPX      -0.473000
      6 NAU          3.8660     0.0010     2.7890 ns         1 VPX       0.020000
      7 CBE          5.3190     0.0010     2.9800 c3         1 VPX      -0.048000
      8 CAR          5.6540     0.6100     4.3410 c3         1 VPX      -0.112000
      9 CAP          5.8400    -1.4370     2.9280 c3         1 VPX      -0.123000
     10 CAQ          7.3580    -1.4270     3.1180 c3         1 VPX      -0.096000
     11 CBI          7.7080    -0.8150     4.4760 c3         1 VPX      -0.110000
     12 CBG          7.1710     0.6200     4.5440 c3         1 VPX      -0.080000
     13 CAS          7.4830     1.1810     5.9320 c3         1 VPX      -0.099000
     14 CBH          8.9890     1.2540     6.1810 c3         1 VPX      -0.137000
     15 CAY          9.1640     1.3560     7.6970 c2         1 VPX       0.377000
     16 OAD          9.1830     2.3840     8.3320 o          1 VPX      -0.325000
     17 OAW          9.2940     0.1210     8.2110 os         1 VPX      -0.226000
     18 CBD          9.2600    -0.8940     7.1550 c3         1 VPX       0.067000
     19 CAB         10.2710    -2.0060     7.4420 c3         1 VPX      -0.137000
     20 CBJ          9.6640    -0.1020     5.8960 c3         1 VPX      -0.162000
     21 CBF          9.2300    -0.7540     4.6130 DU         1 VPX       0.022000
     22 CAG          9.7810    -2.1580     4.5690 c2         1 VPX      -0.079000
     23 CAF         10.7400    -2.4670     3.7060 c2         1 VPX      -0.067000
     24 CBA         11.2790    -3.8410     3.6620 c3         1 VPX       0.091000
     25 CAK         12.2920    -4.1560     2.7550 c2         1 VPX      -0.228000
     26 CAL         12.7930    -5.4420     2.7250 c2         1 VPX      -0.017000
     27 NAT         10.7970    -4.7620     4.4900 n2         1 VPX      -0.128000
     28 CAM         11.2470    -5.9970     4.4860 c2         1 VPX      -0.006000
     29 CBB         12.2610    -6.3840     3.6120 c2         1 VPX      -0.154000
     30 CBC         12.7680    -7.7790     3.6180 ca         1 VPX       0.018000
     31 CAN         12.2330    -8.7120     4.5040 ca         1 VPX      -0.143000
     32 CAZ         12.7080   -10.0100     4.5050 ca         1 VPX       0.079000
     33 FAE         12.1920   -10.9170     5.3620 f          1 VPX      -0.094000
     34 CAI         13.7130   -10.3820     3.6270 ca         1 VPX      -0.139000
     35 CAH         14.2450    -9.4590     2.7460 ca         1 VPX      -0.066000
     36 CAJ         13.7750    -8.1600     2.7340 ca         1 VPX      -0.122000
     37 H1          -0.3610    -0.8850     0.5100 hc         1 VPX       0.049333
     38 H2          -0.3610     0.0010    -1.0210 hc         1 VPX       0.049333
     39 H3          -0.3610     0.8840     0.5110 hc         1 VPX       0.049333
     40 H4           1.8910     0.8840    -0.5110 h1         1 VPX       0.049000
     41 H5           1.8910    -0.8840    -0.5110 h1         1 VPX       0.049000
     42 H6           3.2570     0.0210     3.5830 hn         1 VPX       0.089000
     43 H7           5.7910     0.5840     2.1980 h1         1 VPX       0.101000
     44 H8           5.1920     0.0190     5.1220 hc         1 VPX       0.061500
     45 H9           5.2800     1.6260     4.3810 hc         1 VPX       0.061500
     46 H10          5.6000    -1.8730     1.9660 hc         1 VPX       0.067500
     47 H11          5.3810    -2.0160     3.7200 hc         1 VPX       0.067500
     48 H12          7.7300    -2.4440     3.0770 hc         1 VPX       0.069500
     49 H13          7.8140    -0.8390     2.3310 hc         1 VPX       0.069500
     50 H14          7.2840    -1.4110     5.2750 hc         1 VPX       0.087000
     51 H15          7.6440     1.2290     3.7840 hc         1 VPX       0.079000
     52 H16          7.0630     2.1760     6.0120 hc         1 VPX       0.069000
     53 H17          7.0320     0.5400     6.6800 hc         1 VPX       0.069000
     54 H18          9.4620     2.0740     5.6540 hc         1 VPX       0.104000
     55 H19          8.2600    -1.2960     7.0470 h1         1 VPX       0.086000
     56 H20          9.9160    -2.9350     7.0140 hc         1 VPX       0.064000
     57 H21         11.2270    -1.7470     7.0030 hc         1 VPX       0.064000
     58 H22         10.3860    -2.1220     8.5130 hc         1 VPX       0.064000
     59 H23         10.7390     0.0290     5.8850 hc         1 VPX       0.095000
     60 H24          9.6330    -0.1890     3.7810 ha         1 VPX       0.106000
     61 H25         10.2770    -1.3210     5.0450 DU         1 VPX       0.060000
     62 H27         11.4520    -2.8680     4.4170 DU         1 VPX       0.047000
     63 H29         12.6800    -3.4000     2.0820 ha         1 VPX       0.126000
     64 H30         13.5810    -5.7150     2.0340 ha         1 VPX       0.115000
     65 H31         10.8300    -6.7210     5.1760 h4         1 VPX       0.125000
     66 H32         11.5010    -8.4030     5.2400 ha         1 VPX       0.127000
     67 H33         14.0840   -11.4000     3.6310 ha         1 VPX       0.119000
     68 H34         15.0300    -9.7560     2.0600 ha         1 VPX       0.106000
     69 H35         14.1930    -7.4380     2.0430 ha         1 VPX       0.114000
@<TRIPOS>BOND
     1     1     2 1   
     2     1    37 1   
     3     1    38 1   
     4     1    39 1   
     5     2     3 1   
     6     2    40 1   
     7     2    41 1   
     8     3     4 1   
     9     4     5 1   
    10     4     6 1   
    11     6     7 1   
    12     6    42 1   
    13     7     8 1   
    14     7     9 1   
    15     7    43 1   
    16     8    12 1   
    17     8    44 1   
    18     8    45 1   
    19     9    10 1   
    20     9    46 1   
    21     9    47 1   
    22    10    11 1   
    23    10    48 1   
    24    10    49 1   
    25    11    12 1   
    26    11    21 1   
    27    11    50 1   
    28    12    13 1   
    29    12    51 1   
    30    13    14 1   
    31    13    52 1   
    32    13    53 1   
    33    14    15 1   
    34    14    20 1   
    35    14    54 1   
    36    15    16 1   
    37    15    17 1   
    38    17    18 1   
    39    18    19 1   
    40    18    20 1   
    41    18    55 1   
    42    19    56 1   
    43    19    57 1   
    44    19    58 1   
    45    20    21 1   
    46    20    59 1   
    47    21    22 1   
    48    21    60 1   
    49    21    61 1   
    50    22    23 1   
    51    22    61 1   
    52    23    24 1   
    53    23    62 1   
    54    24    25 1   
    55    24    27 1   
    56    24    62 1   
    57    25    26 1   
    58    25    63 1   
    59    26    29 1   
    60    26    64 1   
    61    27    28 1   
    62    28    29 1   
    63    28    65 1   
    64    29    30 1   
    65    30    31 1   
    66    30    36 1   
    67    31    32 1   
    68    31    66 1   
    69    32    33 1   
    70    32    34 1   
    71    34    35 1   
    72    34    67 1   
    73    35    36 1   
    74    35    68 1   
    75    36    69 1   
@<TRIPOS>SUBSTRUCTURE
     1 VPX         1 TEMP              0 ****  ****    0 ROOT
