@<TRIPOS>MOLECULE
molecule
   69    73     1     0     0
SMALL
bcc


@<TRIPOS>ATOM
      1 CAA          0.0000     0.0000     0.0000 c3         1 VPX      -0.098100
      2 CAO          1.5300     0.0000     0.0000 c3         1 VPX       0.165400
      3 OAV          2.0150     0.0000     1.3680 os         1 VPX      -0.444900
      4 CAX          3.3500     0.0010     1.5440 c          1 VPX       0.750100
      5 OAC          4.0890     0.0000     0.5790 o          1 VPX      -0.616000
      6 NAU          3.8660     0.0010     2.7890 ns         1 VPX      -0.571900
      7 CBE          5.3190     0.0010     2.9800 c3         1 VPX       0.135700
      8 CAR          5.6540     0.6100     4.3410 c3         1 VPX      -0.089400
      9 CAP          5.8400    -1.4370     2.9280 c3         1 VPX      -0.097400
     10 CAQ          7.3580    -1.4270     3.1180 c3         1 VPX      -0.075400
     11 CBI          7.7080    -0.8150     4.4760 c3         1 VPX      -0.062700
     12 CBG          7.1710     0.6200     4.5440 c3         1 VPX      -0.059700
     13 CAS          7.4830     1.1810     5.9320 c3         1 VPX      -0.069400
     14 CBH          8.9890     1.2540     6.1810 c3         1 VPX      -0.180700
     15 CAY          9.1640     1.3560     7.6970 c          1 VPX       0.732600
     16 OAD          9.1830     2.3840     8.3320 o          1 VPX      -0.565500
     17 OAW          9.2940     0.1210     8.2110 os         1 VPX      -0.404900
     18 CBD          9.2600    -0.8940     7.1550 c3         1 VPX       0.144100
     19 CAB         10.2710    -2.0060     7.4420 c3         1 VPX      -0.097100
     20 CBJ          9.6640    -0.1020     5.8960 c3         1 VPX      -0.094700
     21 CBF          9.2300    -0.7540     4.6130 c3         1 VPX      -0.025500
     22 CAG          9.7810    -2.1580     4.5690 c2         1 VPX      -0.127200
     23 CAF         10.7400    -2.4670     3.7060 ce         1 VPX      -0.253800
     24 CBA         11.2790    -3.8410     3.6620 ca         1 VPX       0.478100
     25 CAK         12.2920    -4.1560     2.7550 ca         1 VPX      -0.237300
     26 CAL         12.7930    -5.4420     2.7250 ca         1 VPX      -0.080000
     27 NAT         10.7970    -4.7620     4.4900 nb         1 VPX      -0.696000
     28 CAM         11.2470    -5.9970     4.4860 ca         1 VPX       0.437200
     29 CBB         12.2610    -6.3840     3.6120 cp         1 VPX      -0.166300
     30 CBC         12.7680    -7.7790     3.6180 cp         1 VPX      -0.006000
     31 CAN         12.2330    -8.7120     4.5040 ca         1 VPX      -0.163000
     32 CAZ         12.7080   -10.0100     4.5050 ca         1 VPX       0.139900
     33 FAE         12.1920   -10.9170     5.3620 f          1 VPX      -0.138900
     34 CAI         13.7130   -10.3820     3.6270 ca         1 VPX      -0.166000
     35 CAH         14.2450    -9.4590     2.7460 ca         1 VPX      -0.098000
     36 CAJ         13.7750    -8.1600     2.7340 ca         1 VPX      -0.137000
     37 H1          -0.3610    -0.8850     0.5110 hc         1 VPX       0.047700
     38 H2          -0.3610     0.8840     0.5110 hc         1 VPX       0.047700
     39 H3          -0.3610     0.0000    -1.0210 hc         1 VPX       0.047700
     40 H4           1.8910    -0.8840    -0.5110 h1         1 VPX       0.049700
     41 H5           1.8910     0.8840    -0.5110 h1         1 VPX       0.049700
     42 H6           3.2570     0.0070     3.5830 hn         1 VPX       0.322500
     43 H7           5.7910     0.5840     2.1980 h1         1 VPX       0.083700
     44 H8           5.2800     1.6260     4.3810 hc         1 VPX       0.050200
     45 H9           5.1920     0.0190     5.1220 hc         1 VPX       0.050200
     46 H10          5.6000    -1.8730     1.9660 hc         1 VPX       0.055200
     47 H11          5.3810    -2.0160     3.7200 hc         1 VPX       0.055200
     48 H12          7.7300    -2.4440     3.0770 hc         1 VPX       0.052200
     49 H13          7.8140    -0.8390     2.3310 hc         1 VPX       0.052200
     50 H14          7.2840    -1.4110     5.2750 hc         1 VPX       0.059700
     51 H15          7.6440     1.2290     3.7840 hc         1 VPX       0.062700
     52 H16          7.0630     2.1760     6.0120 hc         1 VPX       0.055200
     53 H17          7.0320     0.5400     6.6800 hc         1 VPX       0.055200
     54 H18          9.4620     2.0740     5.6540 hc         1 VPX       0.094700
     55 H19          8.2600    -1.2960     7.0470 h1         1 VPX       0.070700
     56 H20          9.8200    -2.9670     7.2310 hc         1 VPX       0.055367
     57 H21         10.5650    -1.9660     8.4840 hc         1 VPX       0.055367
     58 H22         11.1440    -1.8710     6.8150 hc         1 VPX       0.055367
     59 H23         10.7390     0.0290     5.8850 hc         1 VPX       0.073700
     60 H24          9.6330    -0.1890     3.7820 hc         1 VPX       0.062700
     61 H25          9.3930    -2.9130     5.2410 ha         1 VPX       0.156000
     62 H27         11.1270    -1.7110     3.0330 ha         1 VPX       0.135000
     63 H29         12.6800    -3.4000     2.0820 ha         1 VPX       0.143000
     64 H30         13.5810    -5.7150     2.0340 ha         1 VPX       0.143000
     65 H31         10.8300    -6.7210     5.1760 h4         1 VPX       0.028100
     66 H32         11.3960    -8.4410     5.1360 ha         1 VPX       0.147000
     67 H33         14.0840   -11.4000     3.6310 ha         1 VPX       0.147000
     68 H34         15.0300    -9.7560     2.0600 ha         1 VPX       0.139000
     69 H35         14.1930    -7.4380     2.0430 ha         1 VPX       0.136000
@<TRIPOS>BOND
     1    35    34 ar
     2    35    36 ar
     3    34    32 ar
     4    36    30 ar
     5    32    33 1
     6    32    31 ar
     7    30    31 ar
     8    30    29 1
     9    26    29 ar
    10    26    25 ar
    11    29    28 ar
    12    25    24 ar
    13    28    27 ar
    14     1     2 1
    15    24    27 ar
    16    24    23 1
    17     9    10 1
    18     9     7 1
    19     3     2 1
    20     3     4 1
    21    10    11 1
    22     4     5 2
    23     4     6 1
    24    22    23 2
    25    22    21 1
    26     6     7 1
    27     7     8 1
    28    11    21 1
    29    11    12 1
    30    19    18 1
    31    21    20 1
    32     8    12 1
    33    18    20 1
    34    18    17 1
    35    12    13 1
    36    20    14 1
    37    13    14 1
    38    17    15 1
    39    14    15 1
    40    15    16 2
    41     1    37 1
    42     1    38 1
    43     1    39 1
    44     2    40 1
    45     2    41 1
    46     6    42 1
    47     7    43 1
    48     8    44 1
    49     8    45 1
    50     9    46 1
    51     9    47 1
    52    10    48 1
    53    10    49 1
    54    11    50 1
    55    12    51 1
    56    13    52 1
    57    13    53 1
    58    14    54 1
    59    18    55 1
    60    19    56 1
    61    19    57 1
    62    19    58 1
    63    20    59 1
    64    21    60 1
    65    22    61 1
    66    23    62 1
    67    25    63 1
    68    26    64 1
    69    28    65 1
    70    31    66 1
    71    34    67 1
    72    35    68 1
    73    36    69 1
@<TRIPOS>SUBSTRUCTURE
     1 VPX         1 TEMP              0 ****  ****    0 ROOT
