@<TRIPOS>MOLECULE
molecule
   57    60     1     0     0
SMALL
bcc


@<TRIPOS>ATOM
      1 O4           0.0000     0.0000     0.0000 o          1 VQ7      -0.626500
      2 C22          1.2200     0.0000     0.0000 c          1 VQ7       0.842900
      3 N            1.8800     0.0000     1.1730 n          1 VQ7      -0.361000
      4 C            1.1330    -0.0010     2.4320 c3         1 VQ7       0.076300
      5 N2           1.8720    -0.0050    -1.1600 nc         1 VQ7      -0.764100
      6 C7           3.1990    -0.0050    -1.2010 cd         1 VQ7       0.756900
      7 C6           3.9310    -0.0010    -0.0110 cd         1 VQ7      -0.401600
      8 C1           3.2480    -0.0010     1.1900 cc         1 VQ7       0.345600
      9 N1           3.9310    -0.0020     2.3810 nh         1 VQ7      -0.807400
     10 C5           4.3390    -1.2730     2.9810 c3         1 VQ7       0.269300
     11 C4           5.8690    -1.3500     3.0230 c3         1 VQ7      -0.228100
     12 S            6.5040     0.0590     3.9770 s6         1 VQ7       1.106000
     13 O            7.9150     0.1160     3.8180 o          1 VQ7      -0.606300
     14 O1           5.9540     0.0070     5.2860 o          1 VQ7      -0.606300
     15 C3           5.7620     1.4580     3.0870 c3         1 VQ7      -0.228100
     16 C2           4.2480     1.2670     3.0370 c3         1 VQ7       0.269300
     17 O2           3.8410    -0.0110    -2.3910 os         1 VQ7      -0.394400
     18 C8           3.0280    -0.0160    -3.5670 c3         1 VQ7       0.191700
     19 C9           3.9110    -0.0210    -4.7880 ca         1 VQ7      -0.045300
     20 C21          4.3190     1.1740    -5.3500 ca         1 VQ7      -0.156000
     21 C20          5.1290     1.1720    -6.4710 ca         1 VQ7       0.152900
     22 F4           5.5280     2.3420    -7.0190 f          1 VQ7      -0.113900
     23 C12          5.5320    -0.0310    -7.0330 ca         1 VQ7       0.021100
     24 C11          5.1200    -1.2310    -6.4670 ca         1 VQ7       0.152900
     25 F            5.5110    -2.4040    -7.0100 f          1 VQ7      -0.113900
     26 C10          4.3140    -1.2230    -5.3430 ca         1 VQ7      -0.156000
     27 O3           6.3280    -0.0360    -8.1360 os         1 VQ7      -0.220200
     28 C13          7.6750    -0.0420    -7.9510 ca         1 VQ7       0.131100
     29 C19          8.5260    -0.0470    -9.0460 ca         1 VQ7      -0.096000
     30 C17          9.8940    -0.0510    -8.8560 ca         1 VQ7      -0.143300
     31 C18         10.8190    -0.0570   -10.0450 c3         1 VQ7       0.679200
     32 F3          10.0650    -0.0560   -11.2220 f          1 VQ7      -0.216300
     33 F2          11.6310     1.0830   -10.0090 f          1 VQ7      -0.216300
     34 F1          11.6220    -1.2020   -10.0060 f          1 VQ7      -0.216300
     35 C16         10.4150    -0.0510    -7.5740 ca         1 VQ7       0.036400
     36 Cl          12.1350    -0.0560    -7.3380 cl         1 VQ7      -0.077400
     37 C15          9.5680    -0.0460    -6.4800 ca         1 VQ7      -0.089000
     38 C14          8.1990    -0.0350    -6.6650 ca         1 VQ7      -0.173000
     39 H1           1.3960    -0.8800     3.0070 h1         1 VQ7       0.062367
     40 H2           1.3810     0.8890     2.9990 h1         1 VQ7       0.062367
     41 H3           0.0710    -0.0110     2.2220 h1         1 VQ7       0.062367
     42 H4           5.0140    -0.0010    -0.0300 ha         1 VQ7       0.165000
     43 H5           3.9480    -1.3370     3.9890 h1         1 VQ7       0.069950
     44 H6           3.9540    -2.0920     2.3860 h1         1 VQ7       0.069950
     45 H7           6.2610    -1.3100     2.0140 h1         1 VQ7       0.111700
     46 H8           6.1720    -2.2750     3.4990 h1         1 VQ7       0.111700
     47 H9           6.1560     1.4950     2.0790 h1         1 VQ7       0.111700
     48 H10          5.9930     2.3800     3.6070 h1         1 VQ7       0.111700
     49 H11          3.8540     1.2580     4.0450 h1         1 VQ7       0.069950
     50 H12          3.8030     2.0810     2.4770 h1         1 VQ7       0.069950
     51 H13          2.4020     0.8680    -3.5770 h1         1 VQ7       0.072200
     52 H14          2.4030    -0.9010    -3.5700 h1         1 VQ7       0.072200
     53 H15          3.9980     2.1140    -4.9150 ha         1 VQ7       0.163000
     54 H16          3.9920    -2.1580    -4.9000 ha         1 VQ7       0.163000
     55 H17          8.1180    -0.0960   -10.0480 ha         1 VQ7       0.172000
     56 H18          9.9790    -0.0430    -5.4780 ha         1 VQ7       0.155000
     57 H19          7.5360    -0.0310    -5.8090 ha         1 VQ7       0.150000
@<TRIPOS>BOND
     1    15    16 1
     2    15    12 1
     3    14    12 2
     4    16     9 1
     5    12    13 2
     6    12    11 1
     7     4     3 1
     8     9     8 1
     9     9    10 1
    10     3     8 1
    11     3     2 1
    12     8     7 2
    13     1     2 2
    14     2     5 1
    15    10    11 1
    16     7     6 1
    17     5     6 2
    18     6    17 1
    19    17    18 1
    20    18    19 1
    21    20    19 ar
    22    20    21 ar
    23    19    26 ar
    24    22    21 1
    25    21    23 ar
    26    26    24 ar
    27    23    24 ar
    28    23    27 1
    29    38    37 ar
    30    38    28 ar
    31    37    35 ar
    32    24    25 1
    33    27    28 1
    34    28    29 ar
    35    35    36 1
    36    35    30 ar
    37    29    30 ar
    38    30    31 1
    39    33    31 1
    40    31    32 1
    41    31    34 1
    42     4    39 1
    43     4    40 1
    44     4    41 1
    45     7    42 1
    46    10    43 1
    47    10    44 1
    48    11    45 1
    49    11    46 1
    50    15    47 1
    51    15    48 1
    52    16    49 1
    53    16    50 1
    54    18    51 1
    55    18    52 1
    56    20    53 1
    57    26    54 1
    58    29    55 1
    59    37    56 1
    60    38    57 1
@<TRIPOS>SUBSTRUCTURE
     1 VQ7         1 TEMP              0 ****  ****    0 ROOT
