@<TRIPOS>MOLECULE
VQI
   53    57     1     0     0
SMALL
bcc


@<TRIPOS>ATOM
      1 C1           0.0000     0.0000     0.0000 c3         1 VQI      -0.052000
      2 C2           1.5080     0.0000     0.0000 ca         1 VQI      -0.113000
      3 C3           2.1990     0.0000     1.1940 ca         1 VQI      -0.065000
      4 C4           3.5860    -0.0000     1.2030 ca         1 VQI      -0.076000
      5 C5           4.2800    -0.0050     0.0110 ca         1 VQI      -0.050000
      6 C6           3.5890    -0.0030    -1.1900 ca         1 VQI      -0.176000
      7 C7           2.2030    -0.0060    -1.2000 ca         1 VQI       0.076000
      8 O8           1.5290    -0.0090    -2.3800 oh         1 VQI      -0.252000
      9 C9           5.7860    -0.0170    -0.0270 c3         1 VQI      -0.047000
     10 C10          6.3460     0.4030     1.3320 c3         1 VQI      -0.101000
     11 N11          5.6910    -0.4020     2.3750 n3         1 VQI      -0.051000
     12 C12          4.2930     0.0120     2.5330 c3         1 VQI       0.058000
     13 C13          3.5970    -0.9380     3.4740 c2         1 VQI      -0.202000
     14 C14          2.7140    -0.4440     4.4200 c2         1 VQI      -0.049500
     15 C15          2.0730    -1.3070     5.2850 c2         1 VQI      -0.212500
     16 C16          2.3180    -2.6820     5.2050 c3         1 VQI       0.095000
     17 C17          3.2110    -3.1710     4.2480 c2         1 VQI      -0.212500
     18 C18          3.8400    -2.2970     3.3860 c2         1 VQI      -0.049500
     19 C19          1.6390    -3.6080     6.1260 c2         1 VQI      -0.081000
     20 C20          1.8770    -4.9330     6.0450 c2         1 VQI      -0.167000
     21 C21          1.2020    -5.8530     6.9600 c3         1 VQI       0.500000
     22 O22          0.4260    -5.4250     7.7920 o          1 VQI      -0.587000
     23 O23          1.4390    -7.1800     6.8800 o          1 VQI      -0.587000
     24 C24          6.4160    -0.3040     3.6490 c3         1 VQI      -0.095000
     25 C25          7.7950    -0.9510     3.5020 c3         1 VQI      -0.101000
     26 C26          8.5970    -0.7400     4.7880 c3         1 VQI      -0.113000
     27 C27          7.6290    -2.4510     3.2450 c3         1 VQI      -0.113000
     28 H11C        -0.3610    -0.9940    -0.2340 hc         1 VQI       0.047000
     29 H12C        -0.3610     0.7000    -0.7440 hc         1 VQI       0.047000
     30 H13C        -0.3610     0.2940     0.9780 hc         1 VQI       0.047000
     31 H3           1.6550     0.0080     2.1310 ha         1 VQI       0.130000
     32 H12          4.2630     1.0140     2.9420 h1         1 VQI       0.049000
     33 H6           4.1340    -0.0070    -2.1260 ha         1 VQI       0.105000
     34 H91C         6.1310     0.6760    -0.7860 hc         1 VQI       0.058000
     35 H92C         6.1310    -1.0170    -0.2630 hc         1 VQI       0.058000
     36 H8           1.7870    -0.7600    -2.8870 ho         1 VQI       0.196000
     37 H101         6.1410     1.4530     1.5010 h1         1 VQI       0.050500
     38 H102         7.4150     0.2260     1.3550 h1         1 VQI       0.050500
     39 H241         6.5330     0.7390     3.9180 h1         1 VQI       0.060500
     40 H242         5.8570    -0.8160     4.4230 h1         1 VQI       0.060500
     41 H14          2.5260     0.6210     4.4810 ha         1 VQI       0.099000
     42 H18          4.5320    -2.6750     2.6430 ha         1 VQI       0.099000
     43 H15          1.3830    -0.9200     6.0250 ha         1 VQI       0.122000
     44 H17          3.4040    -4.2350     4.1780 ha         1 VQI       0.122000
     45 H19          2.6660    -3.2800     6.2340 DU         1 VQI       0.024000
     46 H20          2.1680    -5.0940     7.0760 DU         1 VQI       0.076000
     47 H25          8.3210    -0.4980     2.6700 hc         1 VQI       0.062000
     48 H261         8.0720    -1.1950     5.6190 hc         1 VQI       0.043667
     49 H262         9.5730    -1.1970     4.6830 hc         1 VQI       0.043667
     50 H263         8.7120     0.3210     4.9710 hc         1 VQI       0.043667
     51 H271         8.6050    -2.9190     3.1940 hc         1 VQI       0.043667
     52 H272         7.0580    -2.8940     4.0530 hc         1 VQI       0.043667
     53 H273         7.1060    -2.6010     2.3090 hc         1 VQI       0.043667
@<TRIPOS>BOND
     1     1     2 1   
     2     1    28 1   
     3     1    29 1   
     4     1    30 1   
     5     2     3 1   
     6     2     7 1   
     7     3     4 1   
     8     3    31 1   
     9     4     5 1   
    10     4    12 1   
    11     5     6 1   
    12     5     9 1   
    13     6     7 1   
    14     6    33 1   
    15     7     8 1   
    16     8    36 1   
    17     9    10 1   
    18     9    34 1   
    19     9    35 1   
    20    10    11 1   
    21    10    37 1   
    22    10    38 1   
    23    11    12 1   
    24    11    24 1   
    25    12    13 1   
    26    12    32 1   
    27    13    14 1   
    28    13    18 1   
    29    14    15 1   
    30    14    41 1   
    31    15    16 1   
    32    15    43 1   
    33    16    17 1   
    34    16    19 1   
    35    16    45 1   
    36    17    18 1   
    37    17    44 1   
    38    18    42 1   
    39    19    20 1   
    40    19    45 1   
    41    20    21 1   
    42    20    46 1   
    43    21    22 1   
    44    21    23 1   
    45    21    46 1   
    46    24    25 1   
    47    24    39 1   
    48    24    40 1   
    49    25    26 1   
    50    25    27 1   
    51    25    47 1   
    52    26    48 1   
    53    26    49 1   
    54    26    50 1   
    55    27    51 1   
    56    27    52 1   
    57    27    53 1   
@<TRIPOS>SUBSTRUCTURE
     1 VQI         1 TEMP              0 ****  ****    0 ROOT
