@<TRIPOS>MOLECULE
molecule
   53    55     1     0     0
SMALL
bcc


@<TRIPOS>ATOM
      1 C1           0.0000     0.0000     0.0000 c3         1 VQI      -0.036800
      2 C2           1.5080     0.0000     0.0000 ca         1 VQI      -0.102300
      3 C3           2.1990     0.0000     1.1940 ca         1 VQI      -0.091000
      4 C4           3.5860    -0.0000     1.2030 ca         1 VQI      -0.074300
      5 C5           4.2800    -0.0050     0.0110 ca         1 VQI      -0.051300
      6 C6           3.5890    -0.0030    -1.1900 ca         1 VQI      -0.191000
      7 C7           2.2030    -0.0060    -1.2000 ca         1 VQI       0.107100
      8 O8           1.5290    -0.0090    -2.3800 oh         1 VQI      -0.515100
      9 C9           5.7860    -0.0170    -0.0270 c3         1 VQI      -0.029100
     10 C10          6.3460     0.4030     1.3320 c3         1 VQI       0.155800
     11 N11          5.6910    -0.4020     2.3750 n3         1 VQI      -0.715600
     12 C12          4.2930     0.0120     2.5330 c3         1 VQI       0.275100
     13 C13          3.5970    -0.9380     3.4740 ca         1 VQI      -0.128300
     14 C14          2.7140    -0.4440     4.4200 ca         1 VQI      -0.115000
     15 C15          2.0730    -1.3070     5.2850 ca         1 VQI      -0.146500
     16 C16          2.3180    -2.6820     5.2050 ca         1 VQI      -0.004800
     17 C17          3.2110    -3.1710     4.2480 ca         1 VQI      -0.146500
     18 C18          3.8400    -2.2970     3.3860 ca         1 VQI      -0.115000
     19 C19          1.6390    -3.6080     6.1260 ce         1 VQI      -0.186200
     20 C20          1.8770    -4.9330     6.0450 cf         1 VQI      -0.135200
     21 C21          1.2020    -5.8530     6.9600 c          1 VQI       0.863800
     22 O22          0.4260    -5.4250     7.7920 o          1 VQI      -0.837800
     23 O23          1.4390    -7.1800     6.8800 o          1 VQI      -0.837800
     24 C24          6.4160    -0.3040     3.6490 c3         1 VQI       0.162800
     25 C25          7.7950    -0.9510     3.5020 c3         1 VQI      -0.075700
     26 C26          8.5970    -0.7400     4.7880 c3         1 VQI      -0.085600
     27 C27          7.6290    -2.4510     3.2450 c3         1 VQI      -0.085600
     28 H11C        -0.3610     0.9540    -0.3650 hc         1 VQI       0.043367
     29 H12C        -0.3610    -0.7930    -0.6440 hc         1 VQI       0.043367
     30 H13C        -0.3610    -0.1610     1.0090 hc         1 VQI       0.043367
     31 H3           1.6550     0.0070     2.1310 ha         1 VQI       0.152000
     32 H12          4.2630     1.0140     2.9420 h1         1 VQI       0.031700
     33 H6           4.1340    -0.0070    -2.1260 ha         1 VQI       0.126000
     34 H91C         6.1310     0.6760    -0.7860 hc         1 VQI       0.051700
     35 H92C         6.1310    -1.0170    -0.2630 hc         1 VQI       0.051700
     36 H8           1.8240     0.7110    -2.9120 ho         1 VQI       0.410000
     37 H101         7.4150     0.2260     1.3550 h1         1 VQI       0.034200
     38 H102         6.1410     1.4530     1.5010 h1         1 VQI       0.034200
     39 H241         5.8570    -0.8160     4.4230 h1         1 VQI       0.043200
     40 H242         6.5330     0.7390     3.9180 h1         1 VQI       0.043200
     41 H14          2.5260     0.6210     4.4810 ha         1 VQI       0.125000
     42 H18          4.5320    -2.6750     2.6430 ha         1 VQI       0.125000
     43 H15          1.3830    -0.9200     6.0250 ha         1 VQI       0.138000
     44 H17          3.4040    -4.2350     4.1780 ha         1 VQI       0.138000
     45 H19          0.9480    -3.2260     6.8680 ha         1 VQI       0.152000
     46 H20          2.5680    -5.3160     5.3030 ha         1 VQI       0.105000
     47 H25          8.3210    -0.4980     2.6700 hc         1 VQI       0.039700
     48 H261         9.5820    -1.1740     4.6740 hc         1 VQI       0.035367
     49 H262         8.6900     0.3210     4.9850 hc         1 VQI       0.035367
     50 H263         8.0850    -1.2170     5.6150 hc         1 VQI       0.035367
     51 H271         7.0510    -2.8930     4.0480 hc         1 VQI       0.035367
     52 H272         8.6040    -2.9200     3.2020 hc         1 VQI       0.035367
     53 H273         7.1130    -2.6010     2.3050 hc         1 VQI       0.035367
@<TRIPOS>BOND
     1     1     2 1
     2     2     3 ar
     3     2     7 ar
     4     3     4 ar
     5     4     5 ar
     6     4    12 1
     7     5     6 ar
     8     5     9 1
     9     6     7 ar
    10     7     8 1
    11     9    10 1
    12    10    11 1
    13    11    12 1
    14    11    24 1
    15    12    13 1
    16    13    14 ar
    17    13    18 ar
    18    14    15 ar
    19    15    16 ar
    20    16    17 ar
    21    16    19 1
    22    17    18 ar
    23    19    20 2
    24    20    21 1
    25    21    22 1
    26    21    23 1
    27    24    25 1
    28    25    26 1
    29    25    27 1
    30     1    28 1
    31     1    29 1
    32     1    30 1
    33     3    31 1
    34    12    32 1
    35     6    33 1
    36     9    34 1
    37     9    35 1
    38     8    36 1
    39    10    37 1
    40    10    38 1
    41    24    39 1
    42    24    40 1
    43    14    41 1
    44    18    42 1
    45    15    43 1
    46    17    44 1
    47    19    45 1
    48    20    46 1
    49    25    47 1
    50    26    48 1
    51    26    49 1
    52    26    50 1
    53    27    51 1
    54    27    52 1
    55    27    53 1
@<TRIPOS>SUBSTRUCTURE
     1 VQI         1 TEMP              0 ****  ****    0 ROOT
