@<TRIPOS>MOLECULE
VR
   21    20     1     0     0
SMALL
bcc


@<TRIPOS>ATOM
      1 C4          0.0950   -0.0790   -0.0170 c3        1 VR      -0.082100
      2 C3          1.6020   -0.0590    0.1070 c3        1 VR      -0.075700
      3 C5          2.0270   -0.1210    1.5570 c3        1 VR      -0.082100
      4 C2          2.2080   -1.2210   -0.6820 c3        1 VR       0.173400
      5 O2          3.5870   -1.0510   -0.7980 os        1 VR      -0.587200
      6 P1          4.2650   -2.3020   -1.6820 p5        1 VR       1.337600
      7 C1          5.8760   -1.7970   -1.6620 c3        1 VR      -0.363300
      8 O1          3.6910   -2.1850   -3.0440 o         1 VR      -0.868000
      9 O3          4.0820   -3.5210   -0.8590 o         1 VR      -0.868000
     10 H41C       -0.3560    0.7590    0.5680 hc        1 VR       0.023033
     11 H42C       -0.3170   -1.0420    0.3720 hc        1 VR       0.023033
     12 H43C       -0.2100    0.0280   -1.0860 hc        1 VR       0.023033
     13 H3          1.9950    0.8970   -0.3390 hc        1 VR       0.047700
     14 H51C        1.6000   -1.0250    2.0530 hc        1 VR       0.023033
     15 H52C        3.1420   -0.1820    1.6120 hc        1 VR       0.023033
     16 H53C        1.6810    0.7850    2.1100 hc        1 VR       0.023033
     17 H21C        1.7620   -1.2610   -1.7160 h1        1 VR       0.028200
     18 H22C        2.0060   -2.1990   -0.1620 h1        1 VR       0.028200
     19 H11C        6.5250   -2.5590   -1.1780 hc        1 VR       0.057700
     20 H12C        5.9950   -0.8460   -1.0970 hc        1 VR       0.057700
     21 H13C        6.2520   -1.6250   -2.6940 hc        1 VR       0.057700
@<TRIPOS>BOND
     1    1    2 1   
     2    1   10 1   
     3    1   11 1   
     4    1   12 1   
     5    2    3 1   
     6    2    4 1   
     7    2   13 1   
     8    3   14 1   
     9    3   15 1   
    10    3   16 1   
    11    4    5 1   
    12    4   17 1   
    13    4   18 1   
    14    5    6 1   
    15    6    7 1   
    16    6    8 1   
    17    6    9 1   
    18    7   19 1   
    19    7   20 1   
    20    7   21 1   
@<TRIPOS>SUBSTRUCTURE
     1 VR          1 TEMP              0 ****  ****    0 ROOT
