@<TRIPOS>MOLECULE
molecule
   21    20     1     0     0
SMALL
bcc


@<TRIPOS>ATOM
      1 C4           0.0000     0.0000     0.0000 c3         1 VR       -0.082600
      2 C3           1.5300     0.0000     0.0000 c3         1 VR       -0.085700
      3 C5           2.0400     0.0000     1.4430 c3         1 VR       -0.082600
      4 C2           2.0400    -1.2480    -0.7210 c3         1 VR        0.230400
      5 O2           3.4640    -1.1910    -0.8240 os         1 VR       -0.613200
      6 P1           4.3390    -2.3440    -1.5290 p5         1 VR        1.174600
      7 C1           6.0880    -1.8300    -1.5860 c3         1 VR       -0.281300
      8 O1           3.8460    -2.5660    -2.9060 o          1 VR       -0.824500
      9 O3           4.2100    -3.7080    -0.6850 o          1 VR       -0.824500
     10 H41C        -0.3610     0.8910     0.5000 hc         1 VR        0.026533
     11 H42C        -0.3610    -0.0120    -1.0210 hc         1 VR        0.026533
     12 H43C        -0.3610    -0.8780     0.5210 hc         1 VR        0.026533
     13 H3           1.8910     0.8850    -0.5100 hc         1 VR        0.048700
     14 H51C         1.4950     0.7380     2.0180 hc         1 VR        0.026533
     15 H52C         3.0960     0.2420     1.4520 hc         1 VR        0.026533
     16 H53C         1.8910    -0.9800     1.8780 hc         1 VR        0.026533
     17 H21C         1.6080    -1.2930    -1.7140 h1         1 VR        0.029700
     18 H22C         1.7540    -2.1300    -0.1620 h1         1 VR        0.029700
     19 H11C         6.1890    -0.9620    -2.2270 hc         1 VR        0.040367
     20 H12C         6.4250    -1.5810    -0.5870 hc         1 VR        0.040367
     21 H13C         6.6900    -2.6400    -1.9790 hc         1 VR        0.040367
@<TRIPOS>BOND
     1     1     2 1
     2     2     3 1
     3     2     4 1
     4     4     5 1
     5     5     6 1
     6     6     7 1
     7     6     8 1
     8     6     9 1
     9     1    10 1
    10     1    11 1
    11     1    12 1
    12     2    13 1
    13     3    14 1
    14     3    15 1
    15     3    16 1
    16     4    17 1
    17     4    18 1
    18     7    19 1
    19     7    20 1
    20     7    21 1
@<TRIPOS>SUBSTRUCTURE
     1 VR          1 TEMP              0 ****  ****    0 ROOT
