@<TRIPOS>MOLECULE
VR1
   59    61     1     0     0
SMALL
bcc


@<TRIPOS>ATOM
      1 C1         43.3100   36.5560  -22.4590 cc        1 VR1      0.347000
      2 C2         42.3220   36.0010  -21.6490 cd        1 VR1     -0.282300
      3 C3         42.7720   36.1270  -20.2970 cd        1 VR1     -0.113300
      4 C4         44.0210   36.7560  -20.3370 cc        1 VR1      0.172500
      5 O5         44.3630   37.0270  -21.6800 os        1 VR1     -0.368800
      6 C6         43.4530   36.7360  -23.9140 c3        1 VR1     -0.133700
      7 C7         42.2660   36.1920  -24.6700 c3        1 VR1     -0.098100
      8 C8         44.9040   37.1220  -19.2960 ce        1 VR1      0.021200
      9 C9         46.1110   37.7310  -19.3950 cd        1 VR1     -0.254600
     10 C10        46.8990   38.0350  -18.1640 c         1 VR1      0.690700
     11 N11        48.1650   38.6750  -18.4870 nc        1 VR1     -0.591100
     12 C12        48.2680   38.8150  -19.7880 cd        1 VR1      0.454100
     13 S13        46.9580   38.2530  -20.7830 ss        1 VR1      0.027200
     14 O14        46.5630   37.7960  -17.0070 o         1 VR1     -0.442100
     15 N15        49.4490   39.4060  -20.4230 n4        1 VR1     -0.711000
     16 C16        49.8180   40.7780  -19.8770 c3        1 VR1      0.123800
     17 C17        49.9010   41.7930  -21.0510 c         1 VR1      0.649100
     18 O18        49.6910   41.4000  -22.2200 o         1 VR1     -0.616100
     19 N19        50.1720   43.0820  -20.7380 n         1 VR1     -0.616000
     20 S20      -146.0190 -115.3250   75.4100 s4        1 VR1      1.660300
     21 C21        51.1060   40.7040  -19.1280 ca        1 VR1     -0.226300
     22 C22        52.3320   40.7960  -19.8040 ca        1 VR1     -0.064500
     23 C23        53.5280   40.7370  -19.1030 ca        1 VR1     -0.167500
     24 C24        53.5040   40.5810  -17.7000 ca        1 VR1      0.193900
     25 C25        52.2730   40.4810  -17.0180 ca        1 VR1     -0.167500
     26 C26        51.0850   40.5390  -17.7360 ca        1 VR1     -0.064500
     27 F          54.6600   40.5250  -17.0120 f         1 VR1     -0.102900
     28 O28      -147.2480 -115.2260   74.8680 o         1 VR1     -0.376400
     29 O29      -145.6960 -116.2050   76.3780 o         1 VR1     -0.376400
     30 C30      -144.9090 -114.3710   74.8890 ca        1 VR1     -0.611500
     31 C31      -145.1750 -113.4170   73.8690 ca        1 VR1      0.037000
     32 C32      -144.1900 -112.5630   73.3990 ca        1 VR1     -0.102000
     33 C33      -142.8980 -112.6410   73.9440 ca        1 VR1     -0.022200
     34 C34      -142.5940 -113.5700   74.9540 ca        1 VR1     -0.102000
     35 C35      -143.5890 -114.4180   75.4130 ca        1 VR1      0.037000
     36 N36      -141.8190 -111.7140   73.4380 no        1 VR1      0.303200
     37 O37      -142.1150 -110.9380   72.5790 o         1 VR1     -0.135000
     38 O38      -140.7330 -111.8100   73.9260 o         1 VR1     -0.135000
     39 H2         41.3850   35.5560  -21.9790 ha        1 VR1      0.188000
     40 H3         42.2380   35.7940  -19.4070 ha        1 VR1      0.182000
     41 H61        43.5800   37.8330  -24.1330 hc        1 VR1      0.077700
     42 H62        44.3950   36.2200  -24.2520 hc        1 VR1      0.077700
     43 H71        42.4180   36.3490  -25.7660 hc        1 VR1      0.053033
     44 H72        42.1420   35.0980  -24.4820 hc        1 VR1      0.053033
     45 H73        41.3260   36.7120  -24.3630 hc        1 VR1      0.053033
     46 H81        44.5400   36.8660  -18.2740 ha        1 VR1      0.185000
     47 HN15       50.2530   38.7750  -20.2830 hn        1 VR1      0.484300
     48 H16        48.9810   41.1130  -19.1890 hx        1 VR1      0.140700
     49 HN19       50.2220   43.7580  -21.4660 hn        1 VR1      0.345500
     50 H22        52.3530   40.9260  -20.8990 ha        1 VR1      0.158500
     51 H23        54.4950   40.8130  -19.6260 ha        1 VR1      0.178500
     52 H25        52.2640   40.3560  -15.9230 ha        1 VR1      0.178500
     53 H26        50.1240   40.4500  -17.2000 ha        1 VR1      0.158500
     54 H31      -146.1950 -113.3530   73.4370 ha        1 VR1      0.192000
     55 H32      -144.4180 -111.8250   72.6020 ha        1 VR1      0.220000
     56 H34      -141.5690 -113.6230   75.3770 ha        1 VR1      0.220000
     57 H35      -143.3460 -115.1510   76.2110 ha        1 VR1      0.192000
     58 H152       49.2640   39.4940  -21.4440 hn        1 VR1      0.484300
     59 H192       50.3890   43.3560  -19.8110 hn        1 VR1      0.345500
@<TRIPOS>BOND
     1    1    2 2   
     2    1    5 1   
     3    1    6 1   
     4    2    3 1   
     5    2   39 1   
     6    3    4 2   
     7    3   40 1   
     8    4    5 1   
     9    4    8 1   
    10    6    7 1   
    11    6   41 1   
    12    6   42 1   
    13    7   43 1   
    14    7   44 1   
    15    7   45 1   
    16    8    9 2   
    17    8   46 1   
    18    9   10 1   
    19    9   13 1   
    20   10   11 1   
    21   10   14 2   
    22   11   12 2   
    23   12   13 1   
    24   12   15 1   
    25   15   16 1   
    26   15   47 1   
    27   15   58 1   
    28   16   17 1   
    29   16   21 1   
    30   16   48 1   
    31   17   18 2   
    32   17   19 1   
    33   19   49 1   
    34   19   59 1   
    35   20   28 1   
    36   20   29 1   
    37   20   30 1   
    38   21   22 ar  
    39   21   26 ar  
    40   22   23 ar  
    41   22   50 1   
    42   23   24 ar  
    43   23   51 1   
    44   24   25 ar  
    45   24   27 1   
    46   25   26 ar  
    47   25   52 1   
    48   26   53 1   
    49   30   31 ar  
    50   30   35 ar  
    51   31   32 ar  
    52   31   54 1   
    53   32   33 ar  
    54   32   55 1   
    55   33   34 ar  
    56   33   36 1   
    57   34   35 ar  
    58   34   56 1   
    59   35   57 1   
    60   36   37 1   
    61   36   38 1   
@<TRIPOS>SUBSTRUCTURE
     1 VR1         1 TEMP              0 ****  ****    0 ROOT
