@<TRIPOS>MOLECULE
molecule
   50    52     1     0     0
SMALL
bcc


@<TRIPOS>ATOM
      1 CAJ          0.0000     0.0000     0.0000 ca         1 VR2      -0.194000
      2 CAH          1.3820     0.0000     0.0000 ca         1 VR2      -0.059500
      3 CAU          2.0740     0.0000     1.1970 ca         1 VR2       0.013900
      4 IAC          4.1690    -0.0010     1.1930 i          1 VR2      -0.174900
      5 CAI          1.3860     0.0010     2.3970 ca         1 VR2      -0.059500
      6 CAK          0.0040     0.0010     2.4010 ca         1 VR2      -0.194000
      7 CAV         -0.6930     0.0020     1.2020 ca         1 VR2       0.160100
      8 OAS         -2.0510     0.0030     1.2040 os         1 VR2      -0.327900
      9 CAL         -2.6980     0.0040     2.4790 c3         1 VR2       0.135400
     10 CAM         -4.2150     0.0050     2.2810 c3         1 VR2      -0.076400
     11 CAX         -4.9070     0.0070     3.6460 c3         1 VR2      -0.072700
     12 CAA         -4.5930     1.3140     4.3760 c3         1 VR2      -0.101100
     13 CAN         -6.4200    -0.1180     3.4510 c3         1 VR2      -0.101400
     14 CAO         -7.1010    -0.2430     4.8150 c3         1 VR2       0.146000
     15 NAY         -8.5490    -0.3610     4.6280 n          1 VR2      -0.515800
     16 CAT         -9.2210    -1.5100     4.4790 c          1 VR2       0.817500
     17 OAB         -8.6810    -2.5990     4.4840 o          1 VR2      -0.673500
     18 CAP         -9.4970     0.7620     4.5820 c3         1 VR2       0.072000
     19 CAQ        -10.8650     0.0820     4.3700 c3         1 VR2       0.070000
     20 NAZ        -10.5420    -1.3510     4.3230 n          1 VR2      -0.396000
     21 CAW        -11.4660    -2.3830     4.1500 ca         1 VR2       0.133600
     22 CAF        -11.0540    -3.7150     4.1240 ca         1 VR2      -0.299800
     23 CAD        -11.9980    -4.7040     3.9500 ca         1 VR2       0.441200
     24 NAR        -13.2750    -4.4040     3.8070 nb         1 VR2      -0.716000
     25 CAE        -13.7040    -3.1560     3.8260 ca         1 VR2       0.441200
     26 CAG        -12.8240    -2.1090     4.0020 ca         1 VR2      -0.299800
     27 HAJ         -0.5420     0.0000    -0.9380 ha         1 VR2       0.144500
     28 HAH          1.9230    -0.0020    -0.9380 ha         1 VR2       0.144000
     29 HAI          1.9310     0.0010     3.3330 ha         1 VR2       0.144000
     30 HAK         -0.5340     0.0030     3.3410 ha         1 VR2       0.144500
     31 HAL1        -2.4060     0.8880     3.0320 h1         1 VR2       0.038200
     32 HAL2        -2.4070    -0.8810     3.0330 h1         1 VR2       0.038200
     33 HAM1        -4.5060     0.8890     1.7280 hc         1 VR2       0.059700
     34 HAM2        -4.5080    -0.8800     1.7290 hc         1 VR2       0.059700
     35 HAX         -4.5490    -0.8300     4.2340 hc         1 VR2       0.056700
     36 HAA1        -3.9900     1.1030     5.2510 hc         1 VR2       0.038033
     37 HAA2        -4.0490     1.9760     3.7140 hc         1 VR2       0.038033
     38 HAA3        -5.5180     1.7880     4.6820 hc         1 VR2       0.038033
     39 HAN1        -6.7920     0.7630     2.9410 hc         1 VR2       0.055200
     40 HAN2        -6.6360    -0.9970     2.8570 hc         1 VR2       0.055200
     41 HAO1        -6.8850     0.6370     5.4090 h1         1 VR2       0.062200
     42 HAO2        -6.7300    -1.1230     5.3250 h1         1 VR2       0.062200
     43 HAP1        -9.2800     1.3230     3.6810 h1         1 VR2       0.066700
     44 HAP2        -9.5140     1.2030     5.5720 h1         1 VR2       0.066700
     45 HAQ1       -11.2060     0.3610     3.3800 h1         1 VR2       0.072700
     46 HAQ2       -11.4430     0.2470     5.2710 h1         1 VR2       0.072700
     47 HAF        -10.0080    -3.9680     4.2410 ha         1 VR2       0.163500
     48 HAG        -13.1820    -1.0860     4.0160 ha         1 VR2       0.163500
     49 HAD        -11.6870    -5.7420     3.9290 h4         1 VR2       0.024600
     50 HAE        -14.7610    -2.9520     3.7070 h4         1 VR2       0.024600
@<TRIPOS>BOND
     1     1     2 ar
     2     1     7 ar
     3     2     3 ar
     4     3     4 1
     5     3     5 ar
     6     5     6 ar
     7     6     7 ar
     8     7     8 1
     9     8     9 1
    10     9    10 1
    11    10    11 1
    12    11    12 1
    13    11    13 1
    14    13    14 1
    15    14    15 1
    16    15    16 1
    17    15    18 1
    18    16    17 2
    19    16    20 1
    20    18    19 1
    21    19    20 1
    22    20    21 1
    23    21    22 ar
    24    21    26 ar
    25    22    23 ar
    26    23    24 ar
    27    24    25 ar
    28    25    26 ar
    29     1    27 1
    30     2    28 1
    31     5    29 1
    32     6    30 1
    33     9    31 1
    34     9    32 1
    35    10    33 1
    36    10    34 1
    37    11    35 1
    38    12    36 1
    39    12    37 1
    40    12    38 1
    41    13    39 1
    42    13    40 1
    43    14    41 1
    44    14    42 1
    45    18    43 1
    46    18    44 1
    47    19    45 1
    48    19    46 1
    49    22    47 1
    50    26    48 1
    51    23    49 1
    52    25    50 1
@<TRIPOS>SUBSTRUCTURE
     1 VR2         1 TEMP              0 ****  ****    0 ROOT
