@<TRIPOS>MOLECULE
molecule
   51    53     1     0     0
SMALL
bcc


@<TRIPOS>ATOM
      1 C1           0.0000     0.0000     0.0000 ca         1 VRA       0.128900
      2 C2           1.3910     0.0000     0.0000 ca         1 VRA       0.132600
      3 C3           2.0830     0.0000     1.2040 ca         1 VRA      -0.115000
      4 C4           1.3880     0.0000     2.3980 ca         1 VRA      -0.103000
      5 C5           0.0050     0.0000     2.3960 ca         1 VRA       0.070900
      6 C6          -0.6890    -0.0000     1.1980 ca         1 VRA      -0.127000
      7 N7           2.0920    -0.0000    -1.2100 nu         1 VRA      -0.697000
      8 C8           2.0180     1.1100    -2.0640 ca         1 VRA       0.174600
      9 C9           2.3570     0.9810    -3.4080 ca         1 VRA       0.084600
     10 C10          2.2820     2.0860    -4.2490 ca         1 VRA       0.170100
     11 C11          1.8710     3.3110    -3.7490 ca         1 VRA      -0.220000
     12 C12          1.5360     3.4390    -2.4110 ca         1 VRA       0.147900
     13 C13          1.6030     2.3410    -1.5690 ca         1 VRA       0.035900
     14 I14         -1.0430    -0.0000     4.2110 i          1 VRA      -0.157900
     15 F15         -0.6770     0.0060    -1.1700 f          1 VRA      -0.124900
     16 F16          1.2690     2.4680    -0.2670 f          1 VRA      -0.125900
     17 F17          1.1370     4.6360    -1.9280 f          1 VRA      -0.127900
     18 N18          2.7730    -0.2620    -3.9130 nu         1 VRA      -0.757500
     19 S19          3.0910    -0.4350    -5.5280 s6         1 VRA       1.379900
     20 O20          3.2990    -1.8300    -5.6970 o          1 VRA      -0.621800
     21 O21          2.0120     0.2280    -6.1710 o          1 VRA      -0.621800
     22 C22          4.6410     0.4750    -5.7840 cx         1 VRA      -0.257200
     23 C23          5.2640     0.4300    -7.1810 cx         1 VRA      -0.071400
     24 C24          4.5930     1.7120    -6.6820 cx         1 VRA      -0.071400
     25 C25          5.5920     0.5060    -4.5860 c3         1 VRA      -0.040400
     26 C26          4.9830     1.3630    -3.4730 c3         1 VRA       0.110100
     27 C27          6.0090     1.5480    -2.3540 c3         1 VRA       0.105400
     28 O28          5.4030     2.2480    -1.2650 oh         1 VRA      -0.598800
     29 O29          4.6180     2.6400    -4.0010 oh         1 VRA      -0.586800
     30 O30          2.6120     1.9630    -5.5640 os         1 VRA      -0.322900
     31 C31          2.0380     2.9100    -6.4670 c3         1 VRA       0.147700
     32 H3           3.1660    -0.0000     1.2070 ha         1 VRA       0.148000
     33 H4           1.9270     0.0000     3.3370 ha         1 VRA       0.146000
     34 H6          -1.7730    -0.0000     1.1990 ha         1 VRA       0.159000
     35 HN7          2.6690    -0.7810    -1.4540 hn         1 VRA       0.448800
     36 H11          1.8150     4.1710    -4.4050 ha         1 VRA       0.156000
     37 HN18         2.8420    -1.0520    -3.3020 hn         1 VRA       0.454800
     38 H23          6.3460     0.4500    -7.2110 hc         1 VRA       0.087700
     39 H23A         4.7080    -0.1300    -7.9230 hc         1 VRA       0.087700
     40 H24          3.6280     1.9350    -7.1210 hc         1 VRA       0.087700
     41 H24A         5.2670     2.5150    -6.4090 hc         1 VRA       0.087700
     42 H25          5.7470    -0.5020    -4.2210 hc         1 VRA       0.050200
     43 H25A         6.5410     0.9310    -4.8900 hc         1 VRA       0.050200
     44 H26          4.1030     0.8700    -3.0790 h1         1 VRA       0.111700
     45 H27          6.8510     2.1180    -2.7260 h1         1 VRA       0.025200
     46 H27A         6.3510     0.5780    -2.0140 h1         1 VRA       0.025200
     47 HO28         6.0680     2.5070    -0.6480 ho         1 VRA       0.405000
     48 HO29         5.3190     3.2540    -3.8530 ho         1 VRA       0.400000
     49 H31          2.6230     3.8230    -6.4530 h1         1 VRA       0.044033
     50 H31A         2.0370     2.4990    -7.4690 h1         1 VRA       0.044033
     51 H31B         1.0210     3.1280    -6.1650 h1         1 VRA       0.044033
@<TRIPOS>BOND
     1     1     6 ar
     2     1    15 1
     3     2     1 ar
     4     3     2 ar
     5     3     4 ar
     6     3    32 1
     7     4     5 ar
     8     4    33 1
     9     5    14 1
    10     5     6 ar
    11     6    34 1
    12     7     2 1
    13     7    35 1
    14     8     7 1
    15     8    13 ar
    16     9     8 ar
    17    10     9 ar
    18    10    11 ar
    19    11    12 ar
    20    11    36 1
    21    12    17 1
    22    12    13 ar
    23    13    16 1
    24    18     9 1
    25    18    19 1
    26    18    37 1
    27    19    21 2
    28    20    19 2
    29    22    19 1
    30    22    23 1
    31    22    24 1
    32    23    24 1
    33    23    38 1
    34    23    39 1
    35    24    40 1
    36    24    41 1
    37    25    22 1
    38    25    42 1
    39    25    43 1
    40    26    25 1
    41    26    29 1
    42    26    44 1
    43    27    26 1
    44    27    45 1
    45    27    46 1
    46    28    27 1
    47    28    47 1
    48    29    48 1
    49    30    10 1
    50    31    30 1
    51    31    49 1
    52    31    50 1
    53    31    51 1
@<TRIPOS>SUBSTRUCTURE
     1 VRA         1 TEMP              0 ****  ****    0 ROOT
