@<TRIPOS>MOLECULE
VRB
   83    86     1     0     0
SMALL
bcc


@<TRIPOS>ATOM
      1 C01          0.0000     0.0000     0.0000 c3         1 VRB      -0.001100
      2 C02          1.5300     0.0000     0.0000 c3         1 VRB       0.049800
      3 C03          2.0320     0.0000     1.4210 c2         1 VRB      -0.128400
      4 C04          2.3830    -1.0640     2.1350 ce         1 VRB      -0.199400
      5 C05          2.3410    -2.4880     1.6460 c3         1 VRB       0.086100
      6 C06          2.8170    -0.6430     3.4720 c          1 VRB       0.622700
      7 O07          3.1970    -1.3950     4.3500 o          1 VRB      -0.683500
      8 N08          2.7330     0.6960     3.5840 ns         1 VRB      -0.179900
      9 C09          2.2380     1.2110     2.3010 c3         1 VRB       0.044900
     10 C10          0.9070     1.9390     2.5020 c3         1 VRB       0.075900
     11 C11          1.1340     3.1800     3.3270 cc         1 VRB      -0.375600
     12 C12          1.5150     4.3840     2.8530 cd         1 VRB      -0.153300
     13 C13          1.7940     4.7290     1.4130 c3         1 VRB       0.098200
     14 C14          1.6030     5.2610     3.9530 cd         1 VRB      -0.136300
     15 C15          1.2720     4.5590     5.0560 cc         1 VRB      -0.313600
     16 C16          1.2280     5.0950     6.4630 c3         1 VRB       0.171200
     17 C17         -0.1090     5.7450     6.7130 cc         1 VRB      -0.303600
     18 C18         -1.2340     5.1020     7.1120 cd         1 VRB      -0.140300
     19 C19         -1.3640     3.6240     7.3770 c3         1 VRB       0.074900
     20 C20         -1.0420     3.3390     8.8450 c3         1 VRB      -0.135400
     21 C21         -1.1720     1.8610     9.1100 c          1 VRB       0.979600
     22 O22         -0.9350     1.3750    10.3390 o          1 VRB      -0.911800
     23 O23         -1.4900     1.1130     8.2160 o          1 VRB      -0.911800
     24 C24         -2.2510     6.0510     7.2360 cd         1 VRB      -0.130300
     25 C25         -1.7030     7.2800     6.8990 cc         1 VRB      -0.318100
     26 N26         -0.3800     7.0680     6.5800 na         1 VRB       0.405900
     27 C27         -2.3770     8.5190     6.8860 ce         1 VRB      -0.003200
     28 C28         -1.6580     9.6970     6.8830 cd         1 VRB      -0.152400
     29 N29         -0.2780     9.8180     7.0290 ns         1 VRB      -0.033100
     30 C30          0.0400    11.1250     6.9660 c          1 VRB       0.635700
     31 O31          1.1650    11.5890     7.0570 o          1 VRB      -0.672500
     32 C32         -1.1400    11.8660     6.7750 cc         1 VRB      -0.214400
     33 C33         -2.1840    10.9940     6.7240 cd         1 VRB      -0.047200
     34 C34         -3.6350    11.3500     6.5280 c3         1 VRB       0.078100
     35 C35         -1.2320    13.3650     6.6500 c3         1 VRB       0.065800
     36 C36         -1.2990    13.9910     8.0450 c3         1 VRB       0.002900
     37 C37         -3.6750     5.7890     7.6560 c3         1 VRB       0.098200
     38 N38          0.9830     3.2820     4.6780 na         1 VRB       0.418900
     39 C39          1.9940     6.7150     3.9050 c3         1 VRB       0.070900
     40 C40          0.7440     7.5750     3.7070 c3         1 VRB      -0.155400
     41 C41          1.1360     9.0290     3.6590 c          1 VRB       0.965600
     42 O42          0.1960     9.9720     3.4920 o          1 VRB      -0.901800
     43 O43          2.2970     9.3450     3.7720 o          1 VRB      -0.901800
     44 H1          -0.3610    -0.7060    -0.7380 hc         1 VRB       0.007700
     45 H2          -0.3610     0.9920    -0.2430 hc         1 VRB       0.007700
     46 H3          -0.3610    -0.2860     0.9800 hc         1 VRB       0.007700
     47 H4           1.8910     0.8840    -0.5110 hc         1 VRB       0.014700
     48 H5           1.8910    -0.8850    -0.5110 hc         1 VRB       0.014700
     49 H6           2.9290    -2.5760     0.7400 hc         1 VRB       0.007033
     50 H7           2.7490    -3.1430     2.4060 hc         1 VRB       0.007033
     51 H8           1.3160    -2.7690     1.4400 hc         1 VRB       0.007033
     52 H9           2.9690     1.2400     4.3900 hn         1 VRB       0.213500
     53 H10          2.9710     1.8740     1.8570 h1         1 VRB       0.050700
     54 H11          0.4970     2.2160     1.5390 hc         1 VRB       0.028200
     55 H12          0.2120     1.2860     3.0170 hc         1 VRB       0.028200
     56 H13          1.9040     5.8020     1.3130 hc         1 VRB      -0.001967
     57 H14          2.7080     4.2420     1.0950 hc         1 VRB      -0.001967
     58 H15          0.9720     4.3920     0.7940 hc         1 VRB      -0.001967
     59 H16          1.3710     4.2810     7.1640 hc         1 VRB       0.026700
     60 H17          2.0160     5.8270     6.5950 hc         1 VRB       0.026700
     61 H18         -2.3770     3.3060     7.1610 hc         1 VRB       0.014200
     62 H19         -0.6730     3.0820     6.7430 hc         1 VRB       0.014200
     63 H20         -1.7340     3.8810     9.4790 hc         1 VRB       0.009200
     64 H21         -0.0290     3.6560     9.0610 hc         1 VRB       0.009200
     65 H23          0.2730     7.7720     6.2960 hn         1 VRB       0.153700
     66 H26         -4.1210    11.4310     7.4920 hc         1 VRB       0.004033
     67 H27         -3.7070    12.2970     6.0060 hc         1 VRB       0.004033
     68 H28         -4.1200    10.5780     5.9430 hc         1 VRB       0.004033
     69 H29         -2.1240    13.6260     6.0940 hc         1 VRB       0.019200
     70 H30         -0.3590    13.7380     6.1280 hc         1 VRB       0.019200
     71 H31         -1.9630    13.4070     8.6710 hc         1 VRB      -0.005300
     72 H32         -1.6740    15.0040     7.9680 hc         1 VRB      -0.005300
     73 H33         -0.3090    14.0050     8.4830 hc         1 VRB      -0.005300
     74 H34         -3.7970     6.0480     8.7000 hc         1 VRB      -0.001300
     75 H35         -4.3450     6.3910     7.0540 hc         1 VRB      -0.001300
     76 H36         -3.9060     4.7400     7.5150 hc         1 VRB      -0.001300
     77 H37          0.7070     2.5410     5.2910 hn         1 VRB       0.128700
     78 H38          2.4780     6.9900     4.8340 hc         1 VRB       0.019700
     79 H39          2.6780     6.8780     3.0800 hc         1 VRB       0.019700
     80 H40          0.2610     7.3010     2.7770 hc         1 VRB       0.011700
     81 H41          0.0600     7.4130     4.5310 hc         1 VRB       0.011700
     82 H24         -3.4600     8.5460     6.8950 ha         1 VRB       0.112000
     83 H421         0.3650     9.0640     7.1620 hn         1 VRB       0.184500
@<TRIPOS>BOND
     1     1     2 1   
     2     1    44 1   
     3     1    45 1   
     4     1    46 1   
     5     2     3 1   
     6     2    47 1   
     7     2    48 1   
     8     3     4 2   
     9     3     9 1   
    10     4     5 1   
    11     4     6 1   
    12     5    49 1   
    13     5    50 1   
    14     5    51 1   
    15     6     7 2   
    16     6     8 1   
    17     8     9 1   
    18     8    52 1   
    19     9    10 1   
    20     9    53 1   
    21    10    11 1   
    22    10    54 1   
    23    10    55 1   
    24    11    12 2   
    25    11    38 1   
    26    12    13 1   
    27    12    14 1   
    28    13    56 1   
    29    13    57 1   
    30    13    58 1   
    31    14    15 2   
    32    14    39 1   
    33    15    16 1   
    34    15    38 1   
    35    16    17 1   
    36    16    59 1   
    37    16    60 1   
    38    17    18 2   
    39    17    26 1   
    40    18    19 1   
    41    18    24 1   
    42    19    20 1   
    43    19    61 1   
    44    19    62 1   
    45    20    21 1   
    46    20    63 1   
    47    20    64 1   
    48    21    22 1   
    49    21    23 1   
    50    24    25 2   
    51    24    37 1   
    52    25    26 1   
    53    25    27 1   
    54    26    65 1   
    55    27    28 2   
    56    27    82 1   
    57    28    29 1   
    58    28    33 1   
    59    29    30 1   
    60    29    83 1   
    61    30    31 2   
    62    30    32 1   
    63    32    33 2   
    64    32    35 1   
    65    33    34 1   
    66    34    66 1   
    67    34    67 1   
    68    34    68 1   
    69    35    36 1   
    70    35    69 1   
    71    35    70 1   
    72    36    71 1   
    73    36    72 1   
    74    36    73 1   
    75    37    74 1   
    76    37    75 1   
    77    37    76 1   
    78    38    77 1   
    79    39    40 1   
    80    39    78 1   
    81    39    79 1   
    82    40    41 1   
    83    40    80 1   
    84    40    81 1   
    85    41    42 1   
    86    41    43 1   
@<TRIPOS>SUBSTRUCTURE
     1 VRB         1 TEMP              0 ****  ****    0 ROOT
