@<TRIPOS>MOLECULE
molecule
   83    86     1     0     0
SMALL
bcc


@<TRIPOS>ATOM
      1 C01          0.0000     0.0000     0.0000 c3         1 VRB      -0.091100
      2 C02          1.5300     0.0000     0.0000 c3         1 VRB      -0.025200
      3 C03          2.0320     0.0000     1.4210 c2         1 VRB      -0.114400
      4 C04          2.3830    -1.0640     2.1350 ce         1 VRB      -0.190400
      5 C05          2.3410    -2.4880     1.6460 c3         1 VRB      -0.027900
      6 C06          2.8170    -0.6430     3.4720 c          1 VRB       0.697700
      7 O07          3.1970    -1.3950     4.3500 o          1 VRB      -0.643500
      8 N08          2.7330     0.6960     3.5840 ns         1 VRB      -0.570900
      9 C09          2.2380     1.2110     2.3010 c3         1 VRB       0.129900
     10 C10          0.9070     1.9390     2.5020 c3         1 VRB      -0.003100
     11 C11          1.1340     3.1800     3.3270 cd         1 VRB      -0.156600
     12 C12          1.5150     4.3840     2.8530 cc         1 VRB      -0.152300
     13 C13          1.7940     4.7290     1.4130 c3         1 VRB      -0.011800
     14 C14          1.6030     5.2610     3.9530 cc         1 VRB      -0.136300
     15 C15          1.2720     4.5590     5.0560 cd         1 VRB      -0.107600
     16 C16          1.2280     5.0950     6.4630 c3         1 VRB       0.067200
     17 C17         -0.1090     5.7450     6.7130 cd         1 VRB      -0.098600
     18 C18         -1.2340     5.1020     7.1120 cc         1 VRB      -0.139300
     19 C19         -1.3640     3.6240     7.3770 c3         1 VRB       0.010900
     20 C20         -1.0420     3.3390     8.8450 c3         1 VRB      -0.179400
     21 C21         -1.1720     1.8610     9.1100 c          1 VRB       0.888600
     22 O22         -0.9350     1.3750    10.3390 o          1 VRB      -0.863800
     23 O23         -1.4900     1.1130     8.2160 o          1 VRB      -0.863800
     24 C24         -2.2510     6.0510     7.2360 cc         1 VRB      -0.128300
     25 C25         -1.7030     7.2800     6.8990 cd         1 VRB      -0.116100
     26 N26         -0.3800     7.0680     6.5800 na         1 VRB      -0.144100
     27 C27         -2.3770     8.5190     6.8860 cf         1 VRB      -0.070200
     28 C28         -1.6580     9.6970     6.8830 cc         1 VRB       0.013600
     29 N29         -0.2780     9.8180     7.0290 ns         1 VRB      -0.468100
     30 C30          0.0400    11.1250     6.9660 c          1 VRB       0.723700
     31 O31          1.1650    11.5890     7.0570 o          1 VRB      -0.630500
     32 C32         -1.1400    11.8660     6.7750 cd         1 VRB      -0.193400
     33 C33         -2.1840    10.9940     6.7240 cc         1 VRB      -0.048200
     34 C34         -3.6350    11.3500     6.5280 c3         1 VRB      -0.033900
     35 C35         -1.2320    13.3650     6.6500 c3         1 VRB      -0.006200
     36 C36         -1.2990    13.9910     8.0450 c3         1 VRB      -0.089100
     37 C37         -3.6750     5.7890     7.6560 c3         1 VRB      -0.010800
     38 N38          0.9830     3.2820     4.6780 na         1 VRB      -0.147100
     39 C39          1.9940     6.7150     3.9050 c3         1 VRB       0.005900
     40 C40          0.7440     7.5750     3.7070 c3         1 VRB      -0.192400
     41 C41          1.1360     9.0290     3.6590 c          1 VRB       0.878600
     42 O42          0.1960     9.9720     3.4920 o          1 VRB      -0.856300
     43 O43          2.2970     9.3450     3.7720 o          1 VRB      -0.856300
     44 H1          -0.3610     0.9700    -0.3190 hc         1 VRB       0.039700
     45 H2          -0.3610    -0.2090     1.0000 hc         1 VRB       0.039700
     46 H3          -0.3610    -0.7610    -0.6810 hc         1 VRB       0.039700
     47 H4           1.8910     0.8850    -0.5110 hc         1 VRB       0.046700
     48 H5           1.8910    -0.8850    -0.5110 hc         1 VRB       0.046700
     49 H6           2.7420    -3.1440     2.4100 hc         1 VRB       0.042700
     50 H7           1.3160    -2.7670     1.4320 hc         1 VRB       0.042700
     51 H8           2.9350    -2.5780     0.7450 hc         1 VRB       0.042700
     52 H9           2.9690     1.2400     4.3900 hn         1 VRB       0.363500
     53 H10          2.9710     1.8740     1.8570 h1         1 VRB       0.077700
     54 H11          0.4970     2.2160     1.5390 hc         1 VRB       0.060200
     55 H12          0.2120     1.2860     3.0170 hc         1 VRB       0.060200
     56 H13          2.6770     4.1970     1.0780 hc         1 VRB       0.029700
     57 H14          1.9610     5.7960     1.3230 hc         1 VRB       0.029700
     58 H15          0.9470     4.4430     0.8010 hc         1 VRB       0.029700
     59 H16          1.3710     4.2810     7.1640 hc         1 VRB       0.064700
     60 H17          2.0160     5.8270     6.5950 hc         1 VRB       0.064700
     61 H18         -2.3770     3.3060     7.1610 hc         1 VRB       0.041200
     62 H19         -0.6730     3.0820     6.7430 hc         1 VRB       0.041200
     63 H20         -0.0290     3.6560     9.0610 hc         1 VRB       0.032200
     64 H21         -1.7340     3.8810     9.4790 hc         1 VRB       0.032200
     65 H23          0.2730     7.7720     6.2960 hn         1 VRB       0.320700
     66 H26         -4.1170    11.4470     7.4930 hc         1 VRB       0.040033
     67 H27         -4.1240    10.5700     5.9560 hc         1 VRB       0.040033
     68 H28         -3.7070    12.2890     5.9920 hc         1 VRB       0.040033
     69 H29         -2.1240    13.6260     6.0940 hc         1 VRB       0.051700
     70 H30         -0.3590    13.7380     6.1280 hc         1 VRB       0.051700
     71 H31         -1.7220    14.9860     7.9740 hc         1 VRB       0.027367
     72 H32         -0.3020    14.0510     8.4620 hc         1 VRB       0.027367
     73 H33         -1.9230    13.3790     8.6860 hc         1 VRB       0.027367
     74 H34         -4.3420     6.4260     7.0870 hc         1 VRB       0.032033
     75 H35         -3.9210     4.7510     7.4690 hc         1 VRB       0.032033
     76 H36         -3.7850     6.0030     8.7120 hc         1 VRB       0.032033
     77 H37          0.7070     2.5410     5.2910 hn         1 VRB       0.308700
     78 H38          2.6780     6.8780     3.0800 hc         1 VRB       0.044700
     79 H39          2.4780     6.9900     4.8340 hc         1 VRB       0.044700
     80 H40          0.2610     7.3010     2.7770 hc         1 VRB       0.036700
     81 H41          0.0600     7.4130     4.5310 hc         1 VRB       0.036700
     82 H24         -3.4530     8.5440     6.7640 ha         1 VRB       0.144000
     83 H421         0.3650     9.0640     7.1620 hn         1 VRB       0.342500
@<TRIPOS>BOND
     1     1    44 1
     2     1    45 1
     3     1    46 1
     4     2     3 1
     5     2     1 1
     6     2    47 1
     7     2    48 1
     8     3     4 2
     9     4     5 1
    10     5    49 1
    11     5    50 1
    12     5    51 1
    13     6     4 1
    14     6     7 2
    15     8     6 1
    16     8    52 1
    17     9     8 1
    18     9     3 1
    19     9    53 1
    20    10     9 1
    21    10    54 1
    22    10    55 1
    23    11    38 1
    24    11    10 1
    25    12    11 2
    26    13    12 1
    27    13    56 1
    28    13    57 1
    29    13    58 1
    30    14    12 1
    31    14    15 2
    32    15    38 1
    33    16    15 1
    34    16    59 1
    35    16    60 1
    36    17    26 1
    37    17    16 1
    38    18    17 2
    39    19    18 1
    40    19    20 1
    41    19    61 1
    42    19    62 1
    43    20    63 1
    44    20    64 1
    45    21    20 1
    46    22    21 1
    47    23    21 1
    48    24    18 1
    49    24    25 2
    50    25    27 1
    51    25    26 1
    52    26    65 1
    53    28    33 1
    54    28    27 2
    55    29    28 1
    56    30    29 1
    57    30    32 1
    58    31    30 2
    59    32    33 2
    60    33    34 1
    61    34    66 1
    62    34    67 1
    63    34    68 1
    64    35    32 1
    65    35    69 1
    66    35    70 1
    67    36    35 1
    68    36    71 1
    69    36    72 1
    70    36    73 1
    71    37    24 1
    72    37    74 1
    73    37    75 1
    74    37    76 1
    75    38    77 1
    76    39    40 1
    77    39    14 1
    78    39    78 1
    79    39    79 1
    80    40    41 1
    81    40    80 1
    82    40    81 1
    83    41    42 1
    84    43    41 1
    85    27    82 1
    86    29    83 1
@<TRIPOS>SUBSTRUCTURE
     1 VRB         1 TEMP              0 ****  ****    0 ROOT
