@<TRIPOS>MOLECULE
VRG
   72    72     1     0     0
SMALL
bcc


@<TRIPOS>ATOM
      1 CBB          0.0000     0.0000     0.0000 c          1 VRG       0.564100
      2 OAE          1.2130     0.0000     0.0000 o          1 VRG      -0.578100
      3 CAB         -0.7530     0.0000     1.3050 c3         1 VRG      -0.069100
      4 CAA          0.2450    10.9620    -2.9870 c3         1 VRG       0.108300
      5 NAD          1.9520     6.3080    -2.7900 n2         1 VRG      -0.740100
      6 OAH          1.6270     8.6480    -2.9010 o          1 VRG      -0.608100
      7 CAS          0.9340     3.7450    -2.6420 c3         1 VRG       0.173800
      8 CAT          0.9400     1.2500    -2.5160 c3         1 VRG      -0.066400
      9 NAW         -0.3650     9.6330    -2.9090 ns         1 VRG      -0.244900
     10 NAX          0.0840     4.9390    -2.6840 nu         1 VRG      -0.562200
     11 NAY         -0.1440     7.3110    -2.7980 ns         1 VRG      -0.059400
     12 NAZ         -0.6730     0.0010    -1.1670 ns         1 VRG      -0.193900
     13 CBD          0.6570     6.1860    -2.7580 c2         1 VRG       0.366800
     14 CBF          0.4170     8.5340    -2.8710 c          1 VRG       0.553100
     15 CBH          0.9260    -1.2290    -2.5170 c          1 VRG       0.559100
     16 CBK          0.0600     0.0010    -2.4360 c3         1 VRG      -0.041300
     17 NBM          1.3730    -1.6620    -3.7110 n          1 VRG      -0.083800
     18 CBL          2.2160    -2.8590    -3.7890 c3         1 VRG      -0.063300
     19 CBG          3.5450    -2.4980    -4.3990 c          1 VRG       0.550100
     20 OAI          3.7680    -1.3540    -4.7360 o          1 VRG      -0.700100
     21 CAV          1.5250    -3.9120    -4.6580 c3         1 VRG       0.002900
     22 CBI          0.2530    -4.3630    -3.9850 ca         1 VRG      -0.056300
     23 CAQ          0.2750    -5.4370    -3.1150 ca         1 VRG      -0.097000
     24 CAO         -0.8910    -5.8470    -2.4950 ca         1 VRG      -0.110000
     25 CAM         -2.0790    -5.1890    -2.7530 ca         1 VRG      -0.129000
     26 CAN         -2.1010    -4.1190    -3.6270 ca         1 VRG      -0.110000
     27 CAP         -0.9340    -3.7070    -4.2440 ca         1 VRG      -0.097000
     28 N            4.4880    -3.4460    -4.5710 ns         1 VRG      -0.038900
     29 CA           5.7810    -3.0960    -5.1630 c3         1 VRG      -0.090300
     30 C            5.6720    -3.1370    -6.6660 c          1 VRG       0.985600
     31 O            4.6220    -3.4290    -7.1880 o          1 VRG      -0.923300
     32 CB           6.8410    -4.0970    -4.7010 c3         1 VRG      -0.129400
     33 CG           7.0380    -3.9690    -3.2130 c          1 VRG       0.971600
     34 OD1          6.3950    -3.1600    -2.5850 o          1 VRG      -0.923300
     35 OD2          7.9260    -4.7530    -2.5830 o          1 VRG      -0.923300
     36 OXT          6.7410    -2.8490    -7.4250 o          1 VRG      -0.923300
     37 HAB         -0.0490    -0.0040     2.1280 hc         1 VRG       0.013033
     38 HABA        -1.3790    -0.8830     1.3610 hc         1 VRG       0.013033
     39 HABB        -1.3730     0.8860     1.3640 hc         1 VRG       0.013033
     40 HAA          0.8750    11.1220    -2.1200 h1         1 VRG       0.003033
     41 HAAA         0.8440    11.0320    -3.8870 h1         1 VRG       0.003033
     42 HAAB        -0.5330    11.7150    -3.0110 h1         1 VRG       0.003033
     43 HNAD         2.5320     5.4920    -2.7610 hn         1 VRG       0.340400
     44 HAR         -0.5900     2.4500    -3.4310 hc         1 VRG       0.006700
     45 HARA        -0.5530     2.5400    -1.6640 hc         1 VRG       0.006700
     46 HAS          1.5400     3.7020    -3.5380 h1         1 VRG       0.028200
     47 HASA         1.5780     3.7910    -1.7720 h1         1 VRG       0.028200
     48 HAT          1.5830     1.2950    -1.6450 hc         1 VRG       0.068200
     49 HATA         1.5480     1.2070    -3.4120 hc         1 VRG       0.068200
     50 HNAW        -1.3610     9.5400    -2.8740 hn         1 VRG       0.154500
     51 HNAX        -0.9120     4.8430    -2.7040 hn         1 VRG       0.279800
     52 HNAY        -1.1400     7.2170    -2.7730 hn         1 VRG       0.144500
     53 HNAZ        -1.6730    -0.0310    -1.1680 hn         1 VRG       0.153500
     54 HBK         -0.6430     0.0020    -3.2590 h1         1 VRG       0.031700
     55 HAC          1.2170    -1.5620    -5.7950 h1         1 VRG       0.015700
     56 HACA         1.6080    -0.0310    -5.0010 h1         1 VRG       0.015700
     57 HACB        -0.0340    -0.6810    -4.9090 h1         1 VRG       0.015700
     58 HBL          2.3710    -3.2570    -2.7930 h1         1 VRG       0.087700
     59 HAV          2.1850    -4.7620    -4.7890 hc         1 VRG       0.044200
     60 HAVA         1.2910    -3.4850    -5.6250 hc         1 VRG       0.044200
     61 HAQ          1.2070    -5.9520    -2.9130 ha         1 VRG       0.112000
     62 HAO         -0.8740    -6.6870    -1.8110 ha         1 VRG       0.089000
     63 HAM         -2.9920    -5.5120    -2.2680 ha         1 VRG       0.085000
     64 HAN         -3.0320    -3.6040    -3.8300 ha         1 VRG       0.089000
     65 HAP         -0.9520    -2.8680    -4.9290 ha         1 VRG       0.112000
     66 HN           4.3050    -4.3890    -4.2890 hn         1 VRG       0.144500
     67 HA           6.0640    -2.0990    -4.8490 h1         1 VRG       0.072700
     68 HB           7.7770    -3.8910    -5.2080 hc         1 VRG       0.021700
     69 HBA          6.5160    -5.1020    -4.9370 hc         1 VRG       0.021700
     70 CAR          0.0540     2.4960    -2.5610 c3         1 VRG      -0.035400
     71 CAC          1.0180    -0.9370    -4.9340 c3         1 VRG       0.055300
     72 OAJ          1.2220    -1.8310    -1.5040 o          1 VRG      -0.626100
@<TRIPOS>BOND
     1     1     2 2   
     2     1     3 1   
     3     1    12 1   
     4     3    37 1   
     5     3    38 1   
     6     3    39 1   
     7     4     9 1   
     8     4    40 1   
     9     4    41 1   
    10     4    42 1   
    11     5    13 2   
    12     5    43 1   
    13     6    14 2   
    14     7    10 1   
    15     7    46 1   
    16     7    47 1   
    17     7    70 1   
    18     8    16 1   
    19     8    48 1   
    20     8    49 1   
    21     8    70 1   
    22     9    14 1   
    23     9    50 1   
    24    10    13 1   
    25    10    51 1   
    26    11    13 1   
    27    11    14 1   
    28    11    52 1   
    29    12    16 1   
    30    12    53 1   
    31    15    16 1   
    32    15    17 1   
    33    15    72 2   
    34    16    54 1   
    35    17    18 1   
    36    17    71 1   
    37    18    19 1   
    38    18    21 1   
    39    18    58 1   
    40    19    20 2   
    41    19    28 1   
    42    21    22 1   
    43    21    59 1   
    44    21    60 1   
    45    22    23 ar  
    46    22    27 ar  
    47    23    24 ar  
    48    23    61 1   
    49    24    25 ar  
    50    24    62 1   
    51    25    26 ar  
    52    25    63 1   
    53    26    27 ar  
    54    26    64 1   
    55    27    65 1   
    56    28    29 1   
    57    28    66 1   
    58    29    30 1   
    59    29    32 1   
    60    29    67 1   
    61    30    31 1   
    62    30    36 1   
    63    32    33 1   
    64    32    68 1   
    65    32    69 1   
    66    33    34 1   
    67    33    35 1   
    68    44    70 1   
    69    45    70 1   
    70    55    71 1   
    71    56    71 1   
    72    57    71 1   
@<TRIPOS>SUBSTRUCTURE
     1 VRG         1 TEMP              0 ****  ****    0 ROOT
