@<TRIPOS>MOLECULE
molecule
   72    72     1     0     0
SMALL
bcc


@<TRIPOS>ATOM
      1 CBB          0.0000     0.0000     0.0000 c          1 VRG       0.654100
      2 OAE          1.2130     0.0000     0.0000 o          1 VRG      -0.549100
      3 CAB         -0.7530     0.0000     1.3050 c3         1 VRG      -0.169100
      4 CAA          0.2450    10.9620    -2.9800 c3         1 VRG       0.120300
      5 NAD          1.9520     6.3080    -2.7900 n2         1 VRG      -0.918100
      6 OAH          1.6270     8.6480    -2.9010 o          1 VRG      -0.639100
      7 CAS          0.9340     3.7450    -2.6420 c3         1 VRG       0.259800
      8 CAT          0.9400     1.2500    -2.5160 c3         1 VRG      -0.095400
      9 NAW         -0.3650     9.6330    -2.9050 ns         1 VRG      -0.608900
     10 NAX          0.0840     4.9390    -2.6840 nu         1 VRG      -0.900200
     11 NAY         -0.1440     7.3110    -2.7980 ns         1 VRG      -0.538400
     12 NAZ         -0.6730     0.0010    -1.1670 ns         1 VRG      -0.584900
     13 CBD          0.6570     6.1860    -2.7580 c2         1 VRG       0.681800
     14 CBF          0.4170     8.5340    -2.8710 c          1 VRG       0.795100
     15 CBH          0.9260    -1.2290    -2.5170 c          1 VRG       0.650100
     16 CBK          0.0600     0.0010    -2.4360 c3         1 VRG       0.052700
     17 NBM          1.3730    -1.6620    -3.7110 n          1 VRG      -0.453800
     18 CBL          2.2160    -2.8590    -3.7890 c3         1 VRG       0.036700
     19 CBG          3.5450    -2.4980    -4.3990 c          1 VRG       0.656100
     20 OAI          3.7680    -1.3540    -4.7360 o          1 VRG      -0.641100
     21 CAV          1.5250    -3.9120    -4.6580 c3         1 VRG      -0.053100
     22 CBI          0.2530    -4.3630    -3.9850 ca         1 VRG      -0.051300
     23 CAQ          0.2750    -5.4370    -3.1150 ca         1 VRG      -0.119500
     24 CAO         -0.8910    -5.8470    -2.4950 ca         1 VRG      -0.137000
     25 CAM         -2.0790    -5.1890    -2.7530 ca         1 VRG      -0.153000
     26 CAN         -2.1010    -4.1190    -3.6270 ca         1 VRG      -0.137000
     27 CAP         -0.9340    -3.7070    -4.2440 ca         1 VRG      -0.119500
     28 N            4.4880    -3.4460    -4.5710 ns         1 VRG      -0.490900
     29 CA           5.7810    -3.0960    -5.1630 c3         1 VRG       0.027700
     30 C            5.6720    -3.1370    -6.6660 c          1 VRG       0.889600
     31 O            4.6220    -3.4290    -7.1880 o          1 VRG      -0.875800
     32 CB           6.8410    -4.0970    -4.7010 c3         1 VRG      -0.178400
     33 CG           7.0380    -3.9690    -3.2130 c          1 VRG       0.880600
     34 OD1          6.3950    -3.1600    -2.5850 o          1 VRG      -0.874800
     35 OD2          7.9260    -4.7530    -2.5830 o          1 VRG      -0.874800
     36 OXT          6.7410    -2.8490    -7.4250 o          1 VRG      -0.875800
     37 HAB         -1.5690    -0.7110     1.2510 hc         1 VRG       0.049367
     38 HABA        -0.0830    -0.2800     2.1090 hc         1 VRG       0.049367
     39 HABB        -1.1490     0.9910     1.4930 hc         1 VRG       0.049367
     40 HAA          0.8890    11.1130    -2.1210 h1         1 VRG       0.040367
     41 HAAA        -0.5320    11.7160    -2.9850 h1         1 VRG       0.040367
     42 HAAB         0.8310    11.0410    -3.8880 h1         1 VRG       0.040367
     43 HNAD         2.3680     7.2160    -2.8440 hn         1 VRG       0.468400
     44 HAR         -0.5900     2.4500    -3.4310 hc         1 VRG       0.030200
     45 HARA        -0.5530     2.5400    -1.6640 hc         1 VRG       0.030200
     46 HAS          1.5400     3.7020    -3.5380 h1         1 VRG       0.065200
     47 HASA         1.5780     3.7910    -1.7720 h1         1 VRG       0.065200
     48 HAT          1.5480     1.2070    -3.4120 hc         1 VRG       0.092200
     49 HATA         1.5830     1.2950    -1.6450 hc         1 VRG       0.092200
     50 HNAW        -1.3600     9.5410    -2.8540 hn         1 VRG       0.304500
     51 HNAX        -0.9100     4.8480    -2.6120 hn         1 VRG       0.418800
     52 HNAY        -1.1400     7.2180    -2.7650 hn         1 VRG       0.296500
     53 HNAZ        -1.6730    -0.0300    -1.1680 hn         1 VRG       0.296500
     54 HBK         -0.6430     0.0020    -3.2590 h1         1 VRG       0.053700
     55 HAC          1.2290    -1.5570    -5.7960 h1         1 VRG       0.038367
     56 HACA         1.5990    -0.0250    -4.9940 h1         1 VRG       0.038367
     57 HACB        -0.0370    -0.6920    -4.9150 h1         1 VRG       0.038367
     58 HBL          2.3710    -3.2570    -2.7930 h1         1 VRG       0.111700
     59 HAV          2.1850    -4.7620    -4.7890 hc         1 VRG       0.073200
     60 HAVA         1.2910    -3.4850    -5.6250 hc         1 VRG       0.073200
     61 HAQ          1.2070    -5.9520    -2.9130 ha         1 VRG       0.135000
     62 HAO         -0.8740    -6.6870    -1.8110 ha         1 VRG       0.111500
     63 HAM         -2.9920    -5.5120    -2.2680 ha         1 VRG       0.106000
     64 HAN         -3.0320    -3.6040    -3.8300 ha         1 VRG       0.111500
     65 HAP         -0.9520    -2.8680    -4.9290 ha         1 VRG       0.135000
     66 HN           4.3060    -4.3890    -4.2880 hn         1 VRG       0.293500
     67 HA           6.0640    -2.0990    -4.8490 h1         1 VRG       0.088700
     68 HB           6.5160    -5.1020    -4.9370 hc         1 VRG       0.043700
     69 HBA          7.7770    -3.8910    -5.2080 hc         1 VRG       0.043700
     70 CAR          0.0540     2.4960    -2.5610 c3         1 VRG      -0.102400
     71 CAC          1.0180    -0.9370    -4.9340 c3         1 VRG       0.096300
     72 OAJ          1.2220    -1.8310    -1.5040 o          1 VRG      -0.583100
@<TRIPOS>BOND
     1     4     9 1
     2     9    14 1
     3    14     6 2
     4    14    11 1
     5    11    13 1
     6    13     5 2
     7    13    10 1
     8    10     7 1
     9     7    70 1
    10    70     8 1
    11     8    16 1
    12    16    12 1
    13    16    15 1
    14    12     1 1
    15     1     3 1
    16     1     2 2
    17    15    72 2
    18    15    17 1
    19    17    71 1
    20    17    18 1
    21    18    19 1
    22    18    21 1
    23    19    20 2
    24    19    28 1
    25    28    29 1
    26    29    30 1
    27    29    32 1
    28    30    36 1
    29    30    31 1
    30    32    33 1
    31    33    35 1
    32    33    34 1
    33    21    22 1
    34    22    27 ar
    35    22    23 ar
    36    27    26 ar
    37    26    25 ar
    38    25    24 ar
    39    24    23 ar
    40     4    40 1
    41     4    41 1
    42     4    42 1
    43     9    50 1
    44    11    52 1
    45     5    43 1
    46    10    51 1
    47     7    46 1
    48     7    47 1
    49    70    44 1
    50    70    45 1
    51     8    48 1
    52     8    49 1
    53    16    54 1
    54    12    53 1
    55     3    37 1
    56     3    38 1
    57     3    39 1
    58    71    55 1
    59    71    56 1
    60    71    57 1
    61    18    58 1
    62    28    66 1
    63    29    67 1
    64    32    68 1
    65    32    69 1
    66    21    59 1
    67    21    60 1
    68    27    65 1
    69    26    64 1
    70    25    63 1
    71    24    62 1
    72    23    61 1
@<TRIPOS>SUBSTRUCTURE
     1 VRG         1 TEMP              0 ****  ****    0 ROOT
