@<TRIPOS>MOLECULE
molecule
   34    35     1     0     0
SMALL
bcc


@<TRIPOS>ATOM
      1 OAB          0.0000     0.0000     0.0000 o          1 VRO      -0.806800
      2 CAO          1.2140     0.0000     0.0000 c          1 VRO       0.880800
      3 OAE          1.8870     0.0000     1.1660 o          1 VRO      -0.806800
      4 CAR          1.9550    -0.0060    -1.2830 cc         1 VRO       0.041400
      5 NAL          3.3280     0.1190    -1.2940 ns         1 VRO      -0.428100
      6 CAT          4.0170     0.1160    -2.4480 c          1 VRO       0.798500
      7 OAC          5.2280     0.2280    -2.4130 o          1 VRO      -0.705500
      8 NAM          3.4050    -0.0080    -3.6390 ns         1 VRO      -0.566500
      9 CAU          2.0640    -0.1350    -3.7060 c          1 VRO       0.700700
     10 OAD          1.5070    -0.2480    -4.7820 o          1 VRO      -0.661500
     11 CAS          1.2880    -0.1400    -2.4590 cd         1 VRO      -0.280400
     12 CAK         -0.2120    -0.2790    -2.4840 c3         1 VRO      -0.005200
     13 CAJ         -0.8510     1.1040    -2.6150 c3         1 VRO      -0.021100
     14 CAP         -2.3510     0.9650    -2.6400 ca         1 VRO      -0.093300
     15 CAF         -3.0670     1.0010    -1.4580 ca         1 VRO      -0.087500
     16 CAH         -4.4420     0.8730    -1.4780 ca         1 VRO      -0.197000
     17 CAQ         -5.1050     0.7090    -2.6860 ca         1 VRO       0.113100
     18 OAN         -6.4580     0.5830    -2.7080 os         1 VRO      -0.339900
     19 CAA         -7.0730     0.4170    -3.9870 c3         1 VRO       0.132700
     20 CAI         -4.3840     0.6740    -3.8700 ca         1 VRO      -0.197000
     21 CAG         -3.0100     0.8070    -3.8460 ca         1 VRO      -0.087500
     22 H2           3.9480    -0.0060    -4.4790 hn         1 VRO       0.341500
     23 H4          -0.5460    -0.7460    -1.5660 hc         1 VRO       0.074700
     24 H5          -0.5030    -0.8930    -3.3280 hc         1 VRO       0.074700
     25 H6          -0.5590     1.7180    -1.7710 hc         1 VRO       0.049200
     26 H7          -0.5160     1.5710    -3.5340 hc         1 VRO       0.049200
     27 H8          -2.5490     1.1290    -0.5160 ha         1 VRO       0.149000
     28 H9          -5.0030     0.9010    -0.5510 ha         1 VRO       0.126000
     29 H10         -6.8510     1.2760    -4.6090 h1         1 VRO       0.032700
     30 H11         -6.6890    -0.4790    -4.4580 h1         1 VRO       0.032700
     31 H12         -8.1460     0.3290    -3.8630 h1         1 VRO       0.032700
     32 H13         -4.9000     0.5480    -4.8150 ha         1 VRO       0.126000
     33 H14         -2.4470     0.7790    -4.7710 ha         1 VRO       0.149000
     34 H15          3.8200     0.2130    -0.4280 hn         1 VRO       0.377500
@<TRIPOS>BOND
     1    19    18 1
     2    20    21 ar
     3    20    17 ar
     4    21    14 ar
     5    18    17 1
     6    17    16 ar
     7    14    13 1
     8    14    15 ar
     9    13    12 1
    10    15    16 ar
    11    12    11 1
    12    10     9 2
    13    11     9 1
    14    11     4 2
    15     9     8 1
    16     4     2 1
    17     4     5 1
    18     1     2 1
    19     8     6 1
    20     2     3 1
    21     5     6 1
    22     6     7 2
    23     8    22 1
    24    12    23 1
    25    12    24 1
    26    13    25 1
    27    13    26 1
    28    15    27 1
    29    16    28 1
    30    19    29 1
    31    19    30 1
    32    19    31 1
    33    20    32 1
    34    21    33 1
    35     5    34 1
@<TRIPOS>SUBSTRUCTURE
     1 VRO         1 TEMP              0 ****  ****    0 ROOT
