@<TRIPOS>MOLECULE
molecule
   50    52     1     0     0
SMALL
bcc


@<TRIPOS>ATOM
      1 C            0.0000     0.0000     0.0000 c          1 VRT       0.649100
      2 N            1.9970     1.1990    -0.6920 nz         1 VRT      -0.806600
      3 O           -0.6060     1.0340    -0.1820 o          1 VRT      -0.609100
      4 N1          -0.2820    -3.7750    -4.5880 nb         1 VRT      -0.770000
      5 C2           0.2030    -3.7640    -3.3600 ca         1 VRT       0.703900
      6 N3          -0.5250    -3.4290    -2.3150 nb         1 VRT      -0.799000
      7 C4          -1.8000    -3.0820    -2.4610 ca         1 VRT       0.434800
      8 C5          -2.3630    -3.0770    -3.7490 ca         1 VRT      -0.152200
      9 C6          -1.5450    -3.4430    -4.8320 ca         1 VRT       0.791200
     10 N6          -2.0450    -3.4570    -6.1230 nv         1 VRT      -1.057500
     11 N7          -3.6550    -2.6920    -3.6180 nc         1 VRT      -0.560100
     12 C8          -3.9140    -2.4650    -2.3620 cd         1 VRT       0.453700
     13 N9          -2.8000    -2.6920    -1.6090 na         1 VRT      -0.265000
     14 CA           1.5080     0.0000     0.0000 c3         1 VRT       0.025500
     15 CB           2.0170     0.0000     1.4430 c3         1 VRT      -0.107400
     16 CD           4.0520    -0.1250     2.8870 c3         1 VRT      -0.089100
     17 CG           3.5430    -0.1250     1.4440 c3         1 VRT      -0.097400
     18 C1'         -2.6940    -2.5460    -0.1550 c3         1 VRT       0.255800
     19 N10         -0.6730    -1.1480     0.2080 ns         1 VRT      -0.507900
     20 C2'         -2.1390    -1.1470     0.2140 c3         1 VRT       0.070700
     21 C3'         -2.6850    -0.9490     1.6490 c3         1 VRT       0.092100
     22 O3'         -1.6880    -1.2870     2.6150 oh         1 VRT      -0.606800
     23 C4'         -3.8750    -1.9250     1.7380 c3         1 VRT       0.110100
     24 O4'         -4.0020    -2.5600     0.4550 os         1 VRT      -0.376600
     25 C5'         -5.1550    -1.1540     2.0670 c3         1 VRT       0.142400
     26 O5'         -6.2290    -2.0780     2.2620 oh         1 VRT      -0.588800
     27 HN           1.2290     1.8120    -0.8810 hn         1 VRT       0.464467
     28 HNA          2.6650     1.6690    -0.1140 hn         1 VRT       0.464467
     29 HN6         -2.6590    -4.1920    -6.4140 hn         1 VRT       0.453800
     30 HN6A        -1.7660    -2.7510    -6.7750 hn         1 VRT       0.453800
     31 H8          -4.8730    -2.1430    -1.9740 h5         1 VRT       0.101800
     32 HA           1.8690    -0.8850    -0.5110 hx         1 VRT       0.126700
     33 HB           1.7300     0.9250     1.9280 hc         1 VRT       0.094200
     34 HBA          1.5860    -0.8370     1.9790 hc         1 VRT       0.094200
     35 HD           3.6260    -0.9660     3.4210 hc         1 VRT       0.055367
     36 HDA          3.7590     0.7970     3.3740 hc         1 VRT       0.055367
     37 HDB          5.1330    -0.2070     2.8890 hc         1 VRT       0.055367
     38 HG           3.9740     0.7120     0.9090 hc         1 VRT       0.040700
     39 HGA          3.8300    -1.0510     0.9600 hc         1 VRT       0.040700
     40 H1'         -2.0710    -3.3240     0.2680 h2         1 VRT       0.097700
     41 HN10        -0.1730    -1.9930     0.4000 hn         1 VRT       0.348500
     42 H2'         -2.5330    -0.3900    -0.4530 h1         1 VRT       0.118700
     43 H3'         -3.0240     0.0710     1.7860 h1         1 VRT       0.070700
     44 HO3'        -1.8980    -0.8800     3.4400 ho         1 VRT       0.425000
     45 H4'         -3.6820    -2.6710     2.4990 h1         1 VRT       0.092700
     46 H5'         -5.3960    -0.4880     1.2480 h1         1 VRT       0.035200
     47 H5'A        -5.0060    -0.5760     2.9710 h1         1 VRT       0.035200
     48 HO5'        -6.9550    -1.6340     2.6680 ho         1 VRT       0.417000
     49 HN3          2.4260     0.9340    -1.5570 hn         1 VRT       0.464467
     50 H2           1.2390    -4.0420    -3.2060 h5         1 VRT       0.059100
@<TRIPOS>BOND
     1     1     3 2
     2     1    14 1
     3     1    19 1
     4     2    14 1
     5     4     5 ar
     6     4     9 ar
     7     5     6 ar
     8     6     7 ar
     9     7     8 ar
    10     7    13 1
    11     8     9 ar
    12     8    11 1
    13     9    10 1
    14    11    12 2
    15    12    13 1
    16    13    18 1
    17    14    15 1
    18    15    17 1
    19    16    17 1
    20    18    20 1
    21    18    24 1
    22    19    20 1
    23    20    21 1
    24    21    22 1
    25    21    23 1
    26    23    24 1
    27    23    25 1
    28    25    26 1
    29     2    27 1
    30     2    28 1
    31     5    50 1
    32    10    29 1
    33    10    30 1
    34    12    31 1
    35    14    32 1
    36    15    33 1
    37    15    34 1
    38    16    35 1
    39    16    36 1
    40    16    37 1
    41    17    38 1
    42    17    39 1
    43    18    40 1
    44    19    41 1
    45    20    42 1
    46    21    43 1
    47    22    44 1
    48    23    45 1
    49    25    46 1
    50    25    47 1
    51    26    48 1
    52    49     2 1
@<TRIPOS>SUBSTRUCTURE
     1 VRT         1 TEMP              0 ****  ****    0 ROOT
