@<TRIPOS>MOLECULE
VRV
   34    36     1     0     0
SMALL
bcc


@<TRIPOS>ATOM
      1 C1         -0.2380   -0.0440    0.1830 ca        1 VRV     -0.044000
      2 C2          0.9630    0.6500    0.1150 ca        1 VRV     -0.215000
      3 C3          1.8140    0.6930    1.2320 ca        1 VRV      0.162100
      4 C4          1.4660    0.0240    2.4240 ca        1 VRV     -0.118800
      5 C5          0.2460   -0.6640    2.4720 ca        1 VRV     -0.042000
      6 C6         -0.6020   -0.7010    1.3640 ca        1 VRV     -0.067900
      7 C7          2.3340    0.0040    3.6150 cc        1 VRV      0.164400
      8 N8          2.9610    1.1610    4.0160 n         1 VRV     -0.421100
      9 C9          3.8000    1.2050    5.1480 c         1 VRV      0.703700
     10 C10         3.9460   -0.0420    5.9100 cc        1 VRV     -0.111900
     11 C11         3.3150   -1.1960    5.5010 cd        1 VRV      0.131800
     12 C12         2.4900   -1.1680    4.3350 cd        1 VRV     -0.258000
     13 C13         3.4490   -2.4690    6.2110 ca        1 VRV     -0.086800
     14 C14         4.7110   -2.9510    6.5860 ca        1 VRV     -0.100000
     15 C15         4.8240   -4.1730    7.2480 ca        1 VRV     -0.131500
     16 C16         3.6840   -4.9180    7.5460 ca        1 VRV     -0.112000
     17 C17         2.4250   -4.4420    7.1760 ca        1 VRV     -0.131500
     18 C18         2.3060   -3.2260    6.5060 ca        1 VRV     -0.100000
     19 C19         4.7550    0.0270    7.0710 cg        1 VRV      0.219500
     20 N20         5.4160    0.1050    8.0260 n1        1 VRV     -0.361800
     21 O21         4.3450    2.2910    5.4170 o         1 VRV     -0.619500
     22 O22         3.0010    1.3820    1.2030 oh        1 VRV     -0.498100
     23 BR23       -2.2230   -1.6280    1.4590 br        1 VRV     -0.067100
     24 H1         -0.9000   -0.0700   -0.6980 ha        1 VRV      0.156000
     25 H2          1.2500    1.1680   -0.8130 ha        1 VRV      0.148000
     26 H5         -0.0380   -1.1760    3.4070 ha        1 VRV      0.161000
     27 HN8         2.8960    1.9790    3.4450 hn        1 VRV      0.348500
     28 H12         1.9980   -2.0920    4.0050 ha        1 VRV      0.161000
     29 H14         5.6130   -2.3630    6.3550 ha        1 VRV      0.140500
     30 H15         5.8180   -4.5440    7.5400 ha        1 VRV      0.138000
     31 H16         3.7760   -5.8790    8.0730 ha        1 VRV      0.136000
     32 H17         1.5240   -5.0260    7.4130 ha        1 VRV      0.138000
     33 H18         1.3130   -2.8510    6.2180 ha        1 VRV      0.140500
     34 HO22        3.1340    1.7270    0.3060 ho        1 VRV      0.437000
@<TRIPOS>BOND
     1    1    2 ar  
     2    1    6 ar  
     3    1   24 1   
     4    2    3 ar  
     5    2   25 1   
     6    3    4 ar  
     7    3   22 1   
     8    4    5 ar  
     9    4    7 1   
    10    5    6 ar  
    11    5   26 1   
    12    6   23 1   
    13    7    8 1   
    14    7   12 2   
    15    8    9 1   
    16    8   27 1   
    17    9   10 1   
    18    9   21 2   
    19   10   11 2   
    20   10   19 1   
    21   11   12 1   
    22   11   13 1   
    23   12   28 1   
    24   13   14 ar  
    25   13   18 ar  
    26   14   15 ar  
    27   14   29 1   
    28   15   16 ar  
    29   15   30 1   
    30   16   17 ar  
    31   16   31 1   
    32   17   18 ar  
    33   17   32 1   
    34   18   33 1   
    35   19   20 3   
    36   22   34 1   
@<TRIPOS>SUBSTRUCTURE
     1 VRV         1 TEMP              0 ****  ****    0 ROOT
