@<TRIPOS>MOLECULE
VRX
   41    43     1     0     0
SMALL
bcc


@<TRIPOS>ATOM
      1 C1         -0.2770    0.5040    0.1870 ca        1 VRX     -0.077500
      2 C2          0.4000   -0.1160   -0.8560 ca        1 VRX     -0.172500
      3 C3          0.9390   -1.4030   -0.6600 ca        1 VRX      0.146900
      4 C4          0.7890   -2.0520    0.5790 ca        1 VRX     -0.172500
      5 C5          0.1140   -1.4120    1.6150 ca        1 VRX     -0.077500
      6 C6         -0.4180   -0.1310    1.4300 ca        1 VRX     -0.141300
      7 F           1.5990   -2.0150   -1.6700 f         1 VRX     -0.134900
      8 C8         -1.1740    0.5500    2.5220 c3        1 VRX      0.009800
      9 C9         -1.3080   -0.3330    3.8590 c         1 VRX      0.930600
     10 O10        -0.6760    0.1160    4.8540 o         1 VRX     -0.750800
     11 O11        -2.0370   -1.3320    3.7690 o         1 VRX     -0.750800
     12 N12        -0.4920    1.8580    2.8920 n4        1 VRX     -0.722000
     13 C13        -1.3740    3.0110    2.7840 cc        1 VRX      0.497100
     14 S14        -2.6390    3.2410    3.9630 ss        1 VRX      0.049200
     15 C15        -3.1330    4.6720    3.1800 cc        1 VRX     -0.234600
     16 C16        -2.2640    4.9300    1.9830 c         1 VRX      0.687700
     17 N17        -1.2570    3.9050    1.8240 nd        1 VRX     -0.613100
     18 O18        -2.3740    5.8860    1.2170 o         1 VRX     -0.468100
     19 C19        -4.1340    5.5240    3.4850 cf        1 VRX     -0.025800
     20 C20        -5.0540    5.4360    4.5650 cd        1 VRX      0.205500
     21 C21        -6.1100    6.2640    4.9420 cc        1 VRX     -0.157300
     22 C22        -6.7030    5.6810    6.1110 cc        1 VRX     -0.285300
     23 C23        -5.9850    4.5250    6.3950 cd        1 VRX      0.324000
     24 O24        -4.9660    4.3520    5.4610 os        1 VRX     -0.355800
     25 C25        -6.0790    3.4880    7.4360 c3        1 VRX     -0.131700
     26 C26        -7.2120    3.7490    8.3960 c3        1 VRX     -0.094100
     27 H261       -7.2450    2.9400    9.1650 hc        1 VRX      0.046367
     28 H262       -7.0740    4.7280    8.9160 hc        1 VRX      0.046367
     29 H263       -8.1910    3.7700    7.8590 hc        1 VRX      0.046367
     30 H251       -5.1020    3.4440    7.9930 hc        1 VRX      0.079200
     31 H252       -6.2160    2.4870    6.9390 hc        1 VRX      0.079200
     32 H22        -7.5530    6.0730    6.6640 ha        1 VRX      0.174000
     33 H21        -6.4300    7.1800    4.4490 ha        1 VRX      0.171000
     34 H19        -4.2840    6.4110    2.8300 ha        1 VRX      0.174000
     35 H12         0.3470    1.9850    2.3150 hn        1 VRX      0.479300
     36 H8         -2.2220    0.7740    2.1740 hx        1 VRX      0.106700
     37 H5         -0.0220   -1.9330    2.5810 ha        1 VRX      0.161000
     38 H4          1.2010   -3.0620    0.7200 ha        1 VRX      0.156500
     39 H2          0.5120    0.3800   -1.8300 ha        1 VRX      0.156500
     40 H1         -0.7160    1.5010    0.0210 ha        1 VRX      0.161000
     41 H122       -0.2050    1.7400    3.9050 hn        1 VRX      0.479300
@<TRIPOS>BOND
     1    1    2 ar  
     2    1    6 ar  
     3    1   40 1   
     4    2    3 ar  
     5    2   39 1   
     6    3    4 ar  
     7    3    7 1   
     8    4    5 ar  
     9    4   38 1   
    10    5    6 ar  
    11    5   37 1   
    12    6    8 1   
    13    8    9 1   
    14    8   12 1   
    15    8   36 1   
    16    9   10 1   
    17    9   11 1   
    18   12   13 1   
    19   12   35 1   
    20   12   41 1   
    21   13   14 1   
    22   13   17 2   
    23   14   15 1   
    24   15   16 1   
    25   15   19 2   
    26   16   17 1   
    27   16   18 2   
    28   19   20 1   
    29   19   34 1   
    30   20   21 2   
    31   20   24 1   
    32   21   22 1   
    33   21   33 1   
    34   22   23 2   
    35   22   32 1   
    36   23   24 1   
    37   23   25 1   
    38   25   26 1   
    39   25   30 1   
    40   25   31 1   
    41   26   27 1   
    42   26   28 1   
    43   26   29 1   
@<TRIPOS>SUBSTRUCTURE
     1 VRX         1 TEMP              0 ****  ****    0 ROOT
