@<TRIPOS>MOLECULE
molecule
   58    62     1     0     0
SMALL
bcc


@<TRIPOS>ATOM
      1 CAP          0.0000     0.0000     0.0000 c3         1 VRZ      -0.098400
      2 CAN          1.5390     0.0000     0.0000 c3         1 VRZ      -0.084900
      3 CAO          1.9790     0.0000     1.4780 c3         1 VRZ      -0.084900
      4 CAQ          0.7700    -0.6020     2.2350 c3         1 VRZ      -0.098400
      5 CBE         -0.4410    -0.0010     1.4780 c3         1 VRZ       0.050000
      6 NBF         -1.6280    -0.8410     1.6600 na         1 VRZ      -0.151100
      7 CAM         -1.7200    -2.1560     1.2890 cc         1 VRZ      -0.095100
      8 C4          -2.8000    -0.4260     2.2300 ca         1 VRZ       0.513800
      9 N3          -3.2220     0.7280     2.7490 nb         1 VRZ      -0.796000
     10 C2          -4.4370     0.8390     3.2400 ca         1 VRZ       0.728900
     11 N1          -5.2980    -0.1640     3.2500 nb         1 VRZ      -0.826000
     12 C6          -4.9690    -1.3530     2.7540 ca         1 VRZ       0.771200
     13 NAA         -5.8720    -2.4000     2.7650 nv         1 VRZ      -1.020500
     14 C5          -3.6840    -1.5190     2.2200 ca         1 VRZ      -0.381400
     15 CBB         -2.9480    -2.6320     1.6060 cd         1 VRZ      -0.072400
     16 CAZ         -3.4540    -4.0060     1.3730 ca         1 VRZ      -0.042800
     17 CAK         -4.0640    -4.7120     2.4090 ca         1 VRZ      -0.105000
     18 CAI         -4.5390    -5.9880     2.1880 ca         1 VRZ      -0.151500
     19 CAJ         -3.3250    -4.5950     0.1150 ca         1 VRZ      -0.105000
     20 CAH         -3.7940    -5.8730    -0.0980 ca         1 VRZ      -0.151500
     21 CAY         -4.4070    -6.5720     0.9340 ca         1 VRZ       0.071600
     22 NAV         -4.8880    -7.8670     0.7130 ns         1 VRZ      -0.489100
     23 CAW         -5.4230    -8.1930    -0.4800 c          1 VRZ       0.779100
     24 OAB         -5.4100    -7.3880    -1.3920 o          1 VRZ      -0.648100
     25 NAU         -5.9700    -9.4110    -0.6640 ns         1 VRZ      -0.599900
     26 CAR         -6.5510    -9.7650    -1.9610 c3         1 VRZ       0.179300
     27 CAX         -7.0900   -11.1700    -1.9030 ca         1 VRZ      -0.122300
     28 CAF         -6.2750   -12.2390    -2.2310 ca         1 VRZ      -0.111000
     29 CAD         -6.7710   -13.5270    -2.1770 ca         1 VRZ      -0.131000
     30 CAC         -8.0810   -13.7500    -1.7960 ca         1 VRZ      -0.118000
     31 CAE         -8.8960   -12.6820    -1.4680 ca         1 VRZ      -0.131000
     32 CAG         -8.3990   -11.3930    -1.5170 ca         1 VRZ      -0.111000
     33 H1          -0.3700    -0.8890    -0.4970 hc         1 VRZ       0.056450
     34 H2          -0.3700     0.8900    -0.4960 hc         1 VRZ       0.056450
     35 H3           1.9080    -0.8890    -0.4960 hc         1 VRZ       0.048200
     36 H4           1.9080     0.8890    -0.4960 hc         1 VRZ       0.048200
     37 H5           2.1700     1.0120     1.8150 hc         1 VRZ       0.048200
     38 H6           2.8560    -0.6230     1.6100 hc         1 VRZ       0.048200
     39 H7           0.7700    -1.6830     2.1580 hc         1 VRZ       0.056450
     40 H8           0.7700    -0.2830     3.2700 hc         1 VRZ       0.056450
     41 H9          -0.6310     1.0110     1.8150 h1         1 VRZ       0.097700
     42 H10         -0.9320    -2.7280     0.8160 h4         1 VRZ       0.175000
     43 H11         -4.7450     1.7920     3.6530 h5         1 VRZ       0.056100
     44 H12         -5.9150    -3.0320     1.9910 hn         1 VRZ       0.445300
     45 H13         -6.5030    -2.5080     3.5340 hn         1 VRZ       0.445300
     46 H14         -4.1670    -4.2570     3.3870 ha         1 VRZ       0.140500
     47 H15         -5.0150    -6.5350     2.9930 ha         1 VRZ       0.149000
     48 H16         -2.8470    -4.0510    -0.6910 ha         1 VRZ       0.140500
     49 H17         -3.6930    -6.3310    -1.0750 ha         1 VRZ       0.149000
     50 H18         -4.9320    -8.5180     1.4720 hn         1 VRZ       0.316500
     51 H19         -5.7870    -9.7030    -2.7270 h1         1 VRZ       0.060200
     52 H20         -5.2480   -12.0650    -2.5290 ha         1 VRZ       0.135500
     53 H21         -6.1330   -14.3640    -2.4340 ha         1 VRZ       0.133000
     54 H22         -8.4700   -14.7600    -1.7560 ha         1 VRZ       0.132000
     55 H23         -9.9220   -12.8560    -1.1680 ha         1 VRZ       0.133000
     56 H24         -9.0370   -10.5560    -1.2600 ha         1 VRZ       0.135500
     57 H25         -5.9790   -10.0730     0.0860 hn         1 VRZ       0.312500
     58 H26         -7.3550    -9.0790    -2.1960 h1         1 VRZ       0.060200
@<TRIPOS>BOND
     1    29    28 ar
     2    29    30 ar
     3    28    27 ar
     4    30    31 ar
     5    27    26 1
     6    27    32 ar
     7    25    26 1
     8    25    23 1
     9    31    32 ar
    10    22    23 1
    11    22    21 1
    12    23    24 2
    13    18    21 ar
    14    18    17 ar
    15    21    20 ar
    16    17    16 ar
    17    20    19 ar
    18    16    19 ar
    19    16    15 1
    20     4     3 1
    21     4     5 1
    22     3     2 1
    23    15     7 2
    24    15    14 1
    25    13    12 1
    26     7     6 1
    27    14    12 ar
    28    14     8 ar
    29    12    11 ar
    30     6     8 1
    31     6     5 1
    32     8     9 ar
    33    11    10 ar
    34     5     1 1
    35     2     1 1
    36     9    10 ar
    37     1    33 1
    38     1    34 1
    39     2    35 1
    40     2    36 1
    41     3    37 1
    42     3    38 1
    43     4    39 1
    44     4    40 1
    45     5    41 1
    46     7    42 1
    47    10    43 1
    48    13    44 1
    49    13    45 1
    50    17    46 1
    51    18    47 1
    52    19    48 1
    53    20    49 1
    54    22    50 1
    55    26    51 1
    56    28    52 1
    57    29    53 1
    58    30    54 1
    59    31    55 1
    60    32    56 1
    61    25    57 1
    62    26    58 1
@<TRIPOS>SUBSTRUCTURE
     1 VRZ         1 TEMP              0 ****  ****    0 ROOT
