@<TRIPOS>MOLECULE
VRZ
   58    62     1     0     0
SMALL
bcc


@<TRIPOS>ATOM
      1 CAP          0.0000     0.0000     0.0000 c3         1 VRZ      -0.040900
      2 CAN          1.5390     0.0000     0.0000 c3         1 VRZ      -0.021900
      3 CAO          1.9790     0.0000     1.4780 c3         1 VRZ      -0.021900
      4 CAQ          0.7700    -0.6020     2.2350 c3         1 VRZ      -0.040900
      5 CBE         -0.4410    -0.0010     1.4780 c3         1 VRZ      -0.079000
      6 NBF         -1.6280    -0.8410     1.6600 na         1 VRZ       0.330900
      7 CAM         -1.7200    -2.1560     1.2890 cc         1 VRZ      -0.264100
      8 C4          -2.8000    -0.4260     2.2300 ca         1 VRZ       0.299800
      9 N3          -3.2220     0.7280     2.7490 nb         1 VRZ      -0.682000
     10 C2          -4.4370     0.8390     3.2400 ca         1 VRZ       0.679900
     11 N1          -5.2980    -0.1640     3.2500 nb         1 VRZ      -0.733000
     12 C6          -4.9690    -1.3530     2.7540 ca         1 VRZ       0.593200
     13 NAA         -5.8720    -2.4000     2.7650 nv         1 VRZ      -0.550500
     14 C5          -3.6840    -1.5190     2.2200 ca         1 VRZ      -0.386400
     15 CBB         -2.9480    -2.6320     1.6060 cd         1 VRZ      -0.045400
     16 CAZ         -3.4540    -4.0060     1.3730 ca         1 VRZ      -0.027800
     17 CAK         -4.0640    -4.7120     2.4090 ca         1 VRZ      -0.085000
     18 CAI         -4.5390    -5.9880     2.1880 ca         1 VRZ      -0.124000
     19 CAJ         -3.3250    -4.5950     0.1150 ca         1 VRZ      -0.085000
     20 CAH         -3.7940    -5.8730    -0.0980 ca         1 VRZ      -0.124000
     21 CAY         -4.4070    -6.5720     0.9340 ca         1 VRZ      -0.076400
     22 NAV         -4.8880    -7.8670     0.7130 ns         1 VRZ      -0.050100
     23 CAW         -5.4230    -8.1930    -0.4800 c          1 VRZ       0.564100
     24 OAB         -5.4100    -7.3880    -1.3920 o          1 VRZ      -0.696100
     25 NAU         -5.9700    -9.4110    -0.6640 ns         1 VRZ      -0.216900
     26 CAR         -6.5510    -9.7650    -1.9610 c3         1 VRZ       0.128300
     27 CAX         -7.0900   -11.1700    -1.9030 ca         1 VRZ      -0.129300
     28 CAF         -6.2750   -12.2390    -2.2310 ca         1 VRZ      -0.084000
     29 CAD         -6.7710   -13.5270    -2.1770 ca         1 VRZ      -0.102000
     30 CAC         -8.0810   -13.7500    -1.7960 ca         1 VRZ      -0.091000
     31 CAE         -8.8960   -12.6820    -1.4680 ca         1 VRZ      -0.102000
     32 CAG         -8.3990   -11.3930    -1.5170 ca         1 VRZ      -0.084000
     33 H1          -0.3700    -0.8890    -0.4970 hc         1 VRZ       0.026700
     34 H2          -0.3700     0.8900    -0.4960 hc         1 VRZ       0.026700
     35 H3           1.9080    -0.8890    -0.4960 hc         1 VRZ       0.017200
     36 H4           1.9080     0.8890    -0.4960 hc         1 VRZ       0.017200
     37 H5           2.1700     1.0120     1.8150 hc         1 VRZ       0.017200
     38 H6           2.8560    -0.6230     1.6100 hc         1 VRZ       0.017200
     39 H7           0.7700    -1.6830     2.1580 hc         1 VRZ       0.026700
     40 H8           0.7700    -0.2830     3.2700 hc         1 VRZ       0.026700
     41 H9          -0.6310     1.0110     1.8150 h1         1 VRZ       0.070700
     42 H10         -0.9320    -2.7280     0.8160 h4         1 VRZ       0.152000
     43 H11         -4.7450     1.7920     3.6530 h5         1 VRZ      -0.007900
     44 H12         -5.9150    -3.0320     1.9910 hn         1 VRZ       0.280300
     45 H13         -6.5030    -2.5080     3.5340 hn         1 VRZ       0.280300
     46 H14         -4.1670    -4.2570     3.3870 ha         1 VRZ       0.111500
     47 H15         -5.0150    -6.5350     2.9930 ha         1 VRZ       0.127000
     48 H16         -2.8470    -4.0510    -0.6910 ha         1 VRZ       0.111500
     49 H17         -3.6930    -6.3310    -1.0750 ha         1 VRZ       0.127000
     50 H18         -4.9320    -8.5180     1.4720 hn         1 VRZ       0.159500
     51 H19         -5.7870    -9.7030    -2.7270 h1         1 VRZ       0.029200
     52 H20         -5.2480   -12.0650    -2.5290 ha         1 VRZ       0.108000
     53 H21         -6.1330   -14.3640    -2.4340 ha         1 VRZ       0.105000
     54 H22         -8.4700   -14.7600    -1.7560 ha         1 VRZ       0.104000
     55 H23         -9.9220   -12.8560    -1.1680 ha         1 VRZ       0.105000
     56 H24         -9.0370   -10.5560    -1.2600 ha         1 VRZ       0.108000
     57 H25         -5.9790   -10.0730     0.0860 hn         1 VRZ       0.170500
     58 H26         -7.3550    -9.0790    -2.1960 h1         1 VRZ       0.029200
@<TRIPOS>BOND
     1     1     2 1   
     2     1     5 1   
     3     1    33 1   
     4     1    34 1   
     5     2     3 1   
     6     2    35 1   
     7     2    36 1   
     8     3     4 1   
     9     3    37 1   
    10     3    38 1   
    11     4     5 1   
    12     4    39 1   
    13     4    40 1   
    14     5     6 1   
    15     5    41 1   
    16     6     7 1   
    17     6     8 1   
    18     7    15 2   
    19     7    42 1   
    20     8     9 ar  
    21     8    14 ar  
    22     9    10 ar  
    23    10    11 ar  
    24    10    43 1   
    25    11    12 ar  
    26    12    13 1   
    27    12    14 ar  
    28    13    44 1   
    29    13    45 1   
    30    14    15 1   
    31    15    16 1   
    32    16    17 ar  
    33    16    19 ar  
    34    17    18 ar  
    35    17    46 1   
    36    18    21 ar  
    37    18    47 1   
    38    19    20 ar  
    39    19    48 1   
    40    20    21 ar  
    41    20    49 1   
    42    21    22 1   
    43    22    23 1   
    44    22    50 1   
    45    23    24 2   
    46    23    25 1   
    47    25    26 1   
    48    25    57 1   
    49    26    27 1   
    50    26    51 1   
    51    26    58 1   
    52    27    28 ar  
    53    27    32 ar  
    54    28    29 ar  
    55    28    52 1   
    56    29    30 ar  
    57    29    53 1   
    58    30    31 ar  
    59    30    54 1   
    60    31    32 ar  
    61    31    55 1   
    62    32    56 1   
@<TRIPOS>SUBSTRUCTURE
     1 VRZ         1 TEMP              0 ****  ****    0 ROOT
