@<TRIPOS>MOLECULE
molecule
   53    57     1     0     0
SMALL
bcc


@<TRIPOS>ATOM
      1 O30          0.0000     0.0000     0.0000 o          1 VS0      -0.596100
      2 C19          1.2160     0.0000     0.0000 c          1 VS0       0.677700
      3 C15          1.9550     0.0000     1.2790 ca         1 VS0      -0.150600
      4 C6           3.3510     0.0060     1.2820 ca         1 VS0      -0.084500
      5 C2           4.0350     0.0070     2.4800 ca         1 VS0      -0.137000
      6 C1           3.3410     0.0030     3.6770 ca         1 VS0      -0.102000
      7 C3           1.9580    -0.0040     3.6810 ca         1 VS0      -0.137000
      8 C7           1.2610     0.0010     2.4910 ca         1 VS0      -0.084500
      9 N29          1.8890    -0.0070    -1.1680 ns         1 VS0      -0.476100
     10 C16          1.1930    -0.1110    -2.3760 ca         1 VS0       0.049600
     11 C8          -0.0500     0.4950    -2.5150 ca         1 VS0      -0.141000
     12 C4          -0.7390     0.3940    -3.7050 ca         1 VS0      -0.118500
     13 C13         -0.1870    -0.3180    -4.7700 ca         1 VS0      -0.028800
     14 C5           1.0600    -0.9250    -4.6290 ca         1 VS0      -0.118500
     15 C9           1.7470    -0.8160    -3.4380 ca         1 VS0      -0.141000
     16 C14         -0.9250    -0.4280    -6.0510 cc         1 VS0      -0.082400
     17 C12         -0.3990    -0.1600    -7.3940 ca         1 VS0      -0.396400
     18 C18          0.8380     0.2470    -7.9120 ca         1 VS0       0.775200
     19 N28          1.9110     0.4940    -7.0740 nv         1 VS0      -1.002500
     20 N26          0.9550     0.3920    -9.2290 nb         1 VS0      -0.843000
     21 C11         -0.0670     0.1570   -10.0320 ca         1 VS0       0.739900
     22 N25         -1.2450    -0.2270    -9.5900 nb         1 VS0      -0.807000
     23 C17         -1.4590    -0.3990    -8.2860 ca         1 VS0       0.519800
     24 N27         -2.5420    -0.7810    -7.5410 na         1 VS0      -0.150100
     25 C10         -2.2190    -0.8030    -6.2120 cd         1 VS0      -0.093100
     26 C24         -3.8570    -1.1230    -8.0900 c3         1 VS0       0.051000
     27 C23         -4.2540    -2.5500    -7.6590 c3         1 VS0      -0.099900
     28 C21         -5.1340    -2.3350    -6.4020 c3         1 VS0      -0.088400
     29 C20         -5.9390    -1.0620    -6.7610 c3         1 VS0      -0.088400
     30 C22         -4.9280    -0.1770    -7.5190 c3         1 VS0      -0.099900
     31 H1           3.8960     0.0090     0.3460 ha         1 VS0       0.140500
     32 H2           5.1190     0.0110     2.4840 ha         1 VS0       0.136000
     33 H3           3.8830     0.0010     4.6150 ha         1 VS0       0.134000
     34 H4           1.4210    -0.0050     4.6220 ha         1 VS0       0.136000
     35 H5           0.1780    -0.0040     2.4960 ha         1 VS0       0.140500
     36 H6           2.8850     0.0930    -1.1710 hn         1 VS0       0.325500
     37 H7          -0.4780     1.0470    -1.6870 ha         1 VS0       0.149500
     38 H8          -1.7080     0.8660    -3.8130 ha         1 VS0       0.143000
     39 H9           1.4920    -1.4760    -5.4550 ha         1 VS0       0.143000
     40 H10          2.7170    -1.2870    -3.3270 ha         1 VS0       0.149500
     41 H11          2.7890     0.7830    -7.4580 hn         1 VS0       0.446300
     42 H12          1.8010     0.4110    -6.0830 hn         1 VS0       0.446300
     43 H13          0.0700     0.2870   -11.0990 h5         1 VS0       0.056100
     44 H14         -2.8940    -1.0770    -5.4100 h4         1 VS0       0.178000
     45 H15         -3.8430    -1.0540    -9.1710 h1         1 VS0       0.094700
     46 H16         -3.3720    -3.1270    -7.4080 hc         1 VS0       0.059450
     47 H17         -4.8240    -3.0360    -8.4410 hc         1 VS0       0.059450
     48 H18         -4.5180    -2.1640    -5.5280 hc         1 VS0       0.048700
     49 H19         -5.7990    -3.1780    -6.2530 hc         1 VS0       0.048700
     50 H20         -6.2770    -0.5630    -5.8610 hc         1 VS0       0.048700
     51 H21         -6.7760    -1.3120    -7.4020 hc         1 VS0       0.048700
     52 H22         -4.4710     0.5290    -6.8370 hc         1 VS0       0.059450
     53 H23         -5.4260     0.3460    -8.3260 hc         1 VS0       0.059450
@<TRIPOS>BOND
     1     5     4 ar
     2     5     6 ar
     3     4     3 ar
     4     1     2 2
     5     6     7 ar
     6     3     2 1
     7     3     8 ar
     8     2     9 1
     9     7     8 ar
    10    11    12 ar
    11    11    10 ar
    12    12    13 ar
    13     9    10 1
    14    10    15 ar
    15    27    28 1
    16    27    26 1
    17    13    16 1
    18    13    14 ar
    19    28    29 1
    20    15    14 ar
    21    16    25 2
    22    16    17 1
    23    25    24 1
    24    19    18 1
    25    17    18 ar
    26    17    23 ar
    27    24    26 1
    28    24    23 1
    29    26    30 1
    30    18    20 ar
    31    23    22 ar
    32    20    21 ar
    33    22    21 ar
    34    29    30 1
    35     4    31 1
    36     5    32 1
    37     6    33 1
    38     7    34 1
    39     8    35 1
    40     9    36 1
    41    11    37 1
    42    12    38 1
    43    14    39 1
    44    15    40 1
    45    19    41 1
    46    19    42 1
    47    21    43 1
    48    25    44 1
    49    26    45 1
    50    27    46 1
    51    27    47 1
    52    28    48 1
    53    28    49 1
    54    29    50 1
    55    29    51 1
    56    30    52 1
    57    30    53 1
@<TRIPOS>SUBSTRUCTURE
     1 VS0         1 TEMP              0 ****  ****    0 ROOT
