@<TRIPOS>MOLECULE
VS1
   77    80     1     0     0
SMALL
bcc


@<TRIPOS>ATOM
      1 N1           0.0000     0.0000     0.0000 ns         1 VS1      -0.206900
      2 C3           1.4650     0.0000     0.0000 c3         1 VS1      -0.040300
      3 C12          1.9750     0.0000     1.4420 c3         1 VS1       0.020900
      4 C14          1.4710     1.2310     2.1530 ca         1 VS1      -0.086300
      5 C15          0.2630     1.1960     2.8240 ca         1 VS1      -0.088500
      6 C16         -0.1990     2.3240     3.4760 ca         1 VS1      -0.090500
      7 C17          0.5480     3.4870     3.4560 ca         1 VS1      -0.095000
      8 C18          1.7570     3.5220     2.7850 ca         1 VS1      -0.090500
      9 C19          2.2210     2.3920     2.1370 ca         1 VS1      -0.088500
     10 C11          1.9690    -1.2300    -0.7100 c          1 VS1       0.568100
     11 N20          3.2930    -1.4390    -0.8370 ns         1 VS1      -0.185900
     12 C21          3.7820    -2.6310    -1.5330 c3         1 VS1       0.010700
     13 C23          3.9460    -2.3220    -3.0220 c3         1 VS1      -0.039400
     14 C24          2.5970    -1.9070    -3.6090 c3         1 VS1       0.017900
     15 C29          2.7590    -1.6030    -5.0760 ca         1 VS1      -0.090300
     16 C30          2.5970    -2.6060    -6.0130 ca         1 VS1      -0.098000
     17 C31          2.7460    -2.3250    -7.3580 ca         1 VS1      -0.098000
     18 C32          3.0560    -1.0430    -7.7670 ca         1 VS1      -0.105000
     19 C33          3.2170    -0.0390    -6.8300 ca         1 VS1      -0.098000
     20 C34          3.0650    -0.3180    -5.4850 ca         1 VS1      -0.098000
     21 S26          6.5680    -3.8500     1.2390 sy         1 VS1       0.877300
     22 C35          6.1910    -4.1620     2.9310 ca         1 VS1      -0.163500
     23 C36          5.8070    -5.4280     3.3300 ca         1 VS1       0.003500
     24 C37          5.5110    -5.6730     4.6580 ca         1 VS1      -0.133000
     25 C38          5.6010    -4.6520     5.5870 ca         1 VS1      -0.047000
     26 C39          5.9850    -3.3870     5.1860 ca         1 VS1      -0.133000
     27 C40          6.2850    -3.1430     3.8600 ca         1 VS1       0.003500
     28 O36          6.9750    -5.1250     0.7660 o          1 VS1      -0.581800
     29 O35          7.4660    -2.7510     1.3140 o          1 VS1      -0.581800
     30 O13          1.1810    -2.0280    -1.1710 o          1 VS1      -0.656100
     31 C2          -0.6750     1.1650    -0.0000 c          1 VS1       0.602100
     32 O10         -0.0700     2.2180    -0.0750 o          1 VS1      -0.707100
     33 N4          -2.0200     1.1670     0.0820 n          1 VS1      -0.177800
     34 C5          -2.7770     2.4240     0.2060 c3         1 VS1       0.018500
     35 C6          -3.9360     2.3850    -0.7960 c3         1 VS1       0.185900
     36 O7          -4.7260     1.2200    -0.5680 os         1 VS1      -0.389600
     37 C8          -3.9460     0.0850    -0.9400 c3         1 VS1       0.185900
     38 C9          -2.7890    -0.0880     0.0430 c3         1 VS1       0.018500
     39 C22          5.1320    -3.0470    -0.9460 c3         1 VS1      -0.009400
     40 H1          -0.5000    -0.8670    -0.0030 hn         1 VS1       0.198500
     41 H31          1.8260     0.8850    -0.5110 h1         1 VS1       0.078700
     42 H121         1.6140    -0.8850     1.9530 hc         1 VS1       0.019200
     43 H122         3.0580     0.0010     1.4430 hc         1 VS1       0.019200
     44 H151        -0.3220     0.2840     2.8390 ha         1 VS1       0.099000
     45 H161        -1.1450     2.2970     4.0010 ha         1 VS1       0.100000
     46 H171         0.1860     4.3720     3.9650 ha         1 VS1       0.100000
     47 H181         2.3430     4.4330     2.7720 ha         1 VS1       0.100000
     48 H191         3.1680     2.4190     1.6120 ha         1 VS1       0.099000
     49 H2           3.9420    -0.7590    -0.4940 hn         1 VS1       0.182500
     50 H211         3.0710    -3.4390    -1.4090 h1         1 VS1       0.064700
     51 H231         4.6570    -1.5140    -3.1470 hc         1 VS1       0.024700
     52 H232         4.3080    -3.2040    -3.5370 hc         1 VS1       0.024700
     53 H241         1.8850    -2.7150    -3.4850 hc         1 VS1       0.033200
     54 H242         2.2350    -1.0250    -3.0950 hc         1 VS1       0.033200
     55 H301         2.3540    -3.6120    -5.6930 ha         1 VS1       0.105000
     56 H311         2.6190    -3.1120    -8.0920 ha         1 VS1       0.102000
     57 H321         3.1740    -0.8240    -8.8220 ha         1 VS1       0.102000
     58 H331         3.4580     0.9670    -7.1510 ha         1 VS1       0.102000
     59 H341         3.1910     0.4690    -4.7500 ha         1 VS1       0.105000
     60 H251         4.2560    -4.1630     0.6680 h1         1 VS1       0.069700
     61 H252         4.6070    -2.4740     1.0580 h1         1 VS1       0.069700
     62 H361         5.7370    -6.2280     2.6030 ha         1 VS1       0.122500
     63 H372         5.2100    -6.6650     4.9720 ha         1 VS1       0.109000
     64 H381         5.3670    -4.8440     6.6270 ha         1 VS1       0.102000
     65 H391         6.0570    -2.5870     5.9140 ha         1 VS1       0.109000
     66 H401         6.5870    -2.1510     3.5460 ha         1 VS1       0.122500
     67 H51         -2.1300     3.2640    -0.0180 h1         1 VS1       0.035450
     68 H52         -3.1690     2.5160     1.2120 h1         1 VS1       0.035450
     69 H61         -3.5390     2.3580    -1.8040 h1         1 VS1       0.016450
     70 H62         -4.5520     3.2670    -0.6690 h1         1 VS1       0.016450
     71 H81         -3.5500     0.2330    -1.9380 h1         1 VS1       0.016450
     72 H82         -4.5690    -0.8010    -0.9210 h1         1 VS1       0.016450
     73 H91         -2.1480    -0.8970    -0.2880 h1         1 VS1       0.035450
     74 H92         -3.1800    -0.3050     1.0300 h1         1 VS1       0.035450
     75 H221         5.4930    -3.9300    -1.4600 hc         1 VS1       0.037200
     76 H222         5.8440    -2.2410    -1.0710 hc         1 VS1       0.037200
     77 C25          4.9680    -3.3560     0.5430 c3         1 VS1      -0.008600
@<TRIPOS>BOND
     1     1     2 1   
     2     1    31 1   
     3     1    40 1   
     4     2     3 1   
     5     2    10 1   
     6     2    41 1   
     7     3     4 1   
     8     3    42 1   
     9     3    43 1   
    10     4     5 ar  
    11     4     9 ar  
    12     5     6 ar  
    13     5    44 1   
    14     6     7 ar  
    15     6    45 1   
    16     7     8 ar  
    17     7    46 1   
    18     8     9 ar  
    19     8    47 1   
    20     9    48 1   
    21    10    11 1   
    22    10    30 2   
    23    11    12 1   
    24    11    49 1   
    25    12    13 1   
    26    12    39 1   
    27    12    50 1   
    28    13    14 1   
    29    13    51 1   
    30    13    52 1   
    31    14    15 1   
    32    14    53 1   
    33    14    54 1   
    34    15    16 ar  
    35    15    20 ar  
    36    16    17 ar  
    37    16    55 1   
    38    17    18 ar  
    39    17    56 1   
    40    18    19 ar  
    41    18    57 1   
    42    19    20 ar  
    43    19    58 1   
    44    20    59 1   
    45    21    22 1   
    46    21    28 2   
    47    21    29 2   
    48    21    77 1   
    49    22    23 ar  
    50    22    27 ar  
    51    23    24 ar  
    52    23    62 1   
    53    24    25 ar  
    54    24    63 1   
    55    25    26 ar  
    56    25    64 1   
    57    26    27 ar  
    58    26    65 1   
    59    27    66 1   
    60    31    32 2   
    61    31    33 1   
    62    33    34 1   
    63    33    38 1   
    64    34    35 1   
    65    34    67 1   
    66    34    68 1   
    67    35    36 1   
    68    35    69 1   
    69    35    70 1   
    70    36    37 1   
    71    37    38 1   
    72    37    71 1   
    73    37    72 1   
    74    38    73 1   
    75    38    74 1   
    76    39    75 1   
    77    39    76 1   
    78    39    77 1   
    79    60    77 1   
    80    61    77 1   
@<TRIPOS>SUBSTRUCTURE
     1 VS1         1 TEMP              0 ****  ****    0 ROOT
