@<TRIPOS>MOLECULE
molecule
   81    84     1     0     0
SMALL
bcc


@<TRIPOS>ATOM
      1 C1           0.0000     0.0000     0.0000 ca         1 VS2      -0.101300
      2 C2           1.3820     0.0000     0.0000 ca         1 VS2      -0.101000
      3 C3           2.0730     0.0000     1.1970 ca         1 VS2      -0.133500
      4 C4           1.3820     0.0010     2.3940 ca         1 VS2      -0.116000
      5 C5           0.0000     0.0010     2.3940 ca         1 VS2      -0.133500
      6 C6          -0.6910     0.0060     1.1980 ca         1 VS2      -0.101000
      7 C7          -0.7540    -0.0010    -1.3040 c3         1 VS2       0.224700
      8 O1          -0.9960    -1.3700    -1.7240 os         1 VS2      -0.444900
      9 C8          -1.6570    -1.6160    -2.8700 c          1 VS2       0.759100
     10 O2          -2.0530    -0.6920    -3.5530 o          1 VS2      -0.612000
     11 N1          -1.8770    -2.8870    -3.2620 ns         1 VS2      -0.556900
     12 C9          -2.5920    -3.1540    -4.5120 c3         1 VS2       0.067700
     13 C10         -1.5890    -3.2420    -5.6640 c3         1 VS2      -0.047100
     14 C11         -0.8430    -1.9390    -5.7820 ca         1 VS2      -0.079300
     15 C12          0.3330    -1.7490    -5.0790 ca         1 VS2      -0.113000
     16 C13          1.0170    -0.5530    -5.1880 ca         1 VS2      -0.121000
     17 C14          0.5270     0.4540    -5.9980 ca         1 VS2      -0.122000
     18 C15         -0.6480     0.2640    -6.7010 ca         1 VS2      -0.121000
     19 C16         -1.3310    -0.9340    -6.5960 ca         1 VS2      -0.113000
     20 C17         -3.3380    -4.4580    -4.3960 c          1 VS2       0.647100
     21 O3          -3.2780    -5.1000    -3.3680 o          1 VS2      -0.607100
     22 N2          -4.0710    -4.9100    -5.4310 ns         1 VS2      -0.577900
     23 C18         -4.7960    -6.1760    -5.3170 c3         1 VS2       0.119700
     24 C19         -6.2000    -5.9140    -4.7690 c3         1 VS2      -0.093400
     25 C20         -6.0960    -5.2610    -3.3910 c3         1 VS2      -0.032100
     26 C21         -7.4780    -5.0010    -2.8510 ca         1 VS2      -0.082300
     27 C22         -8.1170    -5.9630    -2.0920 ca         1 VS2      -0.125500
     28 C23         -9.3860    -5.7250    -1.5970 ca         1 VS2      -0.126000
     29 C24        -10.0160    -4.5250    -1.8620 ca         1 VS2      -0.132000
     30 C25         -9.3780    -3.5620    -2.6210 ca         1 VS2      -0.126000
     31 C26         -8.1070    -3.7980    -3.1120 ca         1 VS2      -0.125500
     32 S1          -3.6210    -7.8700    -8.8790 s6         1 VS2       1.105000
     33 O4          -4.2000    -9.1590    -8.7370 o          1 VS2      -0.607800
     34 O5          -4.1940    -6.9400    -9.7880 o          1 VS2      -0.607800
     35 C29         -1.8570    -8.0530    -9.2550 c3         1 VS2      -0.148300
     36 C30         -1.6950    -8.6950   -10.6080 ca         1 VS2      -0.091300
     37 C31         -1.6180    -7.9080   -11.7410 ca         1 VS2      -0.105000
     38 C32         -1.4700    -8.4970   -12.9830 ca         1 VS2      -0.125000
     39 C33         -1.4000    -9.8730   -13.0910 ca         1 VS2      -0.116000
     40 C34         -1.4760   -10.6610   -11.9580 ca         1 VS2      -0.125000
     41 C35         -1.6180   -10.0710   -10.7160 ca         1 VS2      -0.105000
     42 C27         -4.9010    -6.8310    -6.6960 c3         1 VS2      -0.072400
     43 H21          1.9230    -0.0030    -0.9380 ha         1 VS2       0.133500
     44 H31          3.1570    -0.0000     1.1970 ha         1 VS2       0.131500
     45 H41          1.9240    -0.0010     3.3330 ha         1 VS2       0.131000
     46 H51         -0.5410     0.0040     3.3330 ha         1 VS2       0.131500
     47 H61         -1.7740     0.0060     1.1980 ha         1 VS2       0.133500
     48 H71         -0.1680     0.5100    -2.0590 h1         1 VS2       0.055700
     49 H72         -1.7000     0.5100    -1.1750 h1         1 VS2       0.055700
     50 HN11        -1.5680    -3.6470    -2.6900 hn         1 VS2       0.343500
     51 H91         -3.2950    -2.3530    -4.7050 h1         1 VS2       0.103700
     52 H101        -0.8870    -4.0440    -5.4710 hc         1 VS2       0.052200
     53 H102        -2.1180    -3.4410    -6.5890 hc         1 VS2       0.052200
     54 H121         0.7180    -2.5370    -4.4440 ha         1 VS2       0.126000
     55 H131         1.9380    -0.4040    -4.6370 ha         1 VS2       0.127500
     56 H141         1.0620     1.3920    -6.0810 ha         1 VS2       0.127000
     57 H151        -1.0320     1.0520    -7.3370 ha         1 VS2       0.127500
     58 H161        -2.2520    -1.0820    -7.1480 ha         1 VS2       0.126000
     59 HN21        -4.1530    -4.3600    -6.2630 hn         1 VS2       0.317500
     60 H181        -4.2640    -6.8370    -4.6430 h1         1 VS2       0.087700
     61 H191        -6.7360    -6.8520    -4.6840 hc         1 VS2       0.052200
     62 H192        -6.7330    -5.2540    -5.4420 hc         1 VS2       0.052200
     63 H201        -5.5640    -5.9220    -2.7170 hc         1 VS2       0.060200
     64 H202        -5.5600    -4.3230    -3.4750 hc         1 VS2       0.060200
     65 H221        -7.6230    -6.9050    -1.8840 ha         1 VS2       0.129000
     66 H231        -9.8860    -6.4800    -1.0020 ha         1 VS2       0.128500
     67 H241       -11.0110    -4.3390    -1.4760 ha         1 VS2       0.128000
     68 H251        -9.8720    -2.6200    -2.8270 ha         1 VS2       0.128500
     69 H261        -7.6080    -3.0430    -3.7070 ha         1 VS2       0.129000
     70 H281        -2.9640    -7.7550    -6.5700 h1         1 VS2       0.097200
     71 H282        -2.9600    -6.1570    -7.3280 h1         1 VS2       0.097200
     72 H291        -1.3860    -7.0770    -9.2600 h1         1 VS2       0.100200
     73 H292        -1.3900    -8.6760    -8.5010 h1         1 VS2       0.100200
     74 H311        -1.6730    -6.8300   -11.6570 ha         1 VS2       0.137500
     75 H321        -1.4100    -7.8800   -13.8710 ha         1 VS2       0.135000
     76 H331        -1.2860   -10.3350   -14.0650 ha         1 VS2       0.133000
     77 H341        -1.4180   -11.7390   -12.0420 ha         1 VS2       0.135000
     78 H351        -1.6780   -10.6880    -9.8270 ha         1 VS2       0.137500
     79 H271        -5.4330    -6.1700    -7.3700 hc         1 VS2       0.067700
     80 H272        -5.4370    -7.7690    -6.6120 hc         1 VS2       0.067700
     81 C28         -3.4960    -7.0940    -7.2440 c3         1 VS2      -0.215600
@<TRIPOS>BOND
     1     1     2 ar
     2     1     6 ar
     3     1     7 1
     4     2     3 ar
     5     2    43 1
     6     3     4 ar
     7     3    44 1
     8     4     5 ar
     9     4    45 1
    10     5     6 ar
    11     5    46 1
    12     6    47 1
    13     7     8 1
    14     7    48 1
    15     7    49 1
    16     8     9 1
    17     9    10 2
    18     9    11 1
    19    11    12 1
    20    11    50 1
    21    12    13 1
    22    12    20 1
    23    12    51 1
    24    13    14 1
    25    13    52 1
    26    13    53 1
    27    14    15 ar
    28    14    19 ar
    29    15    16 ar
    30    15    54 1
    31    16    17 ar
    32    16    55 1
    33    17    18 ar
    34    17    56 1
    35    18    19 ar
    36    18    57 1
    37    19    58 1
    38    20    21 2
    39    20    22 1
    40    22    23 1
    41    22    59 1
    42    23    24 1
    43    23    42 1
    44    23    60 1
    45    24    25 1
    46    24    61 1
    47    24    62 1
    48    25    26 1
    49    25    63 1
    50    25    64 1
    51    26    27 ar
    52    26    31 ar
    53    27    28 ar
    54    27    65 1
    55    28    29 ar
    56    28    66 1
    57    29    30 ar
    58    29    67 1
    59    30    31 ar
    60    30    68 1
    61    31    69 1
    62    81    32 1
    63    81    42 1
    64    81    70 1
    65    81    71 1
    66    32    33 2
    67    32    34 2
    68    32    35 1
    69    35    36 1
    70    35    72 1
    71    35    73 1
    72    36    37 ar
    73    36    41 ar
    74    37    38 ar
    75    37    74 1
    76    38    39 ar
    77    38    75 1
    78    39    40 ar
    79    39    76 1
    80    40    41 ar
    81    40    77 1
    82    41    78 1
    83    42    79 1
    84    42    80 1
@<TRIPOS>SUBSTRUCTURE
     1 VS2         1 TEMP              0 ****  ****    0 ROOT
