@<TRIPOS>MOLECULE
VS3
   81    84     1     0     0
SMALL
bcc


@<TRIPOS>ATOM
      1 C1           0.0000     0.0000     0.0000 ca         1 VS3      -0.120300
      2 C2           1.3820     0.0000     0.0000 ca         1 VS3      -0.074000
      3 C3           2.0740     0.0000     1.1980 ca         1 VS3      -0.106500
      4 C4           1.3830     0.0010     2.3950 ca         1 VS3      -0.089000
      5 C5           0.0000     0.0010     2.3940 ca         1 VS3      -0.106500
      6 C6          -0.6910     0.0060     1.1970 ca         1 VS3      -0.074000
      7 C7          -0.7530    -0.0010    -1.3050 c3         1 VS3       0.308700
      8 O1          -0.9950    -1.3690    -1.7240 os         1 VS3      -0.425900
      9 C8          -1.6570    -1.6160    -2.8710 c          1 VS3       0.682100
     10 O2          -2.0510    -0.6930    -3.5550 o          1 VS3      -0.658000
     11 N1          -1.8820    -2.8860    -3.2600 ns         1 VS3      -0.156900
     12 C9          -2.6010    -3.1540    -4.5070 c3         1 VS3      -0.040300
     13 C10         -1.6190    -3.1240    -5.6790 c3         1 VS3       0.021900
     14 C11         -1.0610    -1.7330    -5.8320 ca         1 VS3      -0.087300
     15 C12          0.0910    -1.3720    -5.1580 ca         1 VS3      -0.087500
     16 C13          0.6020    -0.0950    -5.2980 ca         1 VS3      -0.089000
     17 C14         -0.0380     0.8200    -6.1120 ca         1 VS3      -0.092000
     18 C15         -1.1890     0.4590    -6.7870 ca         1 VS3      -0.089000
     19 C16         -1.6980    -0.8180    -6.6500 ca         1 VS3      -0.087500
     20 C17         -3.2500    -4.5120    -4.4310 c          1 VS3       0.566100
     21 O3          -3.1240    -5.1900    -3.4330 o          1 VS3      -0.644100
     22 N2          -3.9720    -4.9740    -5.4710 ns         1 VS3      -0.190900
     23 C18         -4.6020    -6.2940    -5.3970 c3         1 VS3       0.014700
     24 C19         -5.9590    -6.1710    -4.7010 c3         1 VS3      -0.038400
     25 C20         -5.7500    -5.7410    -3.2470 c3         1 VS3       0.015900
     26 C21         -7.0860    -5.6210    -2.5610 ca         1 VS3      -0.090300
     27 C22         -7.6330    -6.7140    -1.9160 ca         1 VS3      -0.098500
     28 C23         -8.8590    -6.6040    -1.2860 ca         1 VS3      -0.098000
     29 C24         -9.5380    -5.4000    -1.3030 ca         1 VS3      -0.104000
     30 C25         -8.9910    -4.3070    -1.9480 ca         1 VS3      -0.098000
     31 C26         -7.7640    -4.4160    -2.5740 ca         1 VS3      -0.098500
     32 S1          -3.6770    -7.7360    -9.1390 s6         1 VS3       1.198500
     33 O4          -4.1760    -9.0650    -9.1170 o          1 VS3      -0.587800
     34 O5          -4.1980    -6.7470   -10.0160 o          1 VS3      -0.587800
     35 O29         -2.2520    -7.9180    -9.6440 os         1 VS3      -0.354800
     36 C30         -1.7550    -9.0220    -9.0270 ca         1 VS3       0.169100
     37 C31         -1.9070   -10.2710    -9.6100 ca         1 VS3      -0.132500
     38 C32         -1.4010   -11.3920    -8.9810 ca         1 VS3       0.011500
     39 C33         -0.7420   -11.2690    -7.7720 ca         1 VS3      -0.454200
     40 N3          -0.2010   -12.4710    -7.0990 no         1 VS3       1.047200
     41 O8           0.3840   -12.3630    -6.0360 o          1 VS3      -0.446000
     42 O9          -0.3350   -13.5680    -7.6120 o          1 VS3      -0.446000
     43 C34         -0.5940   -10.0240    -7.1860 ca         1 VS3       0.011500
     44 C35         -1.0940    -8.9000    -7.8140 ca         1 VS3      -0.132500
     45 C27         -4.8030    -6.8440    -6.8110 c3         1 VS3      -0.002400
     46 H21          1.9240    -0.0020    -0.9380 ha         1 VS3       0.106000
     47 H31          3.1570    -0.0000     1.1980 ha         1 VS3       0.103500
     48 H41          1.9240    -0.0010     3.3330 ha         1 VS3       0.102000
     49 H51         -0.5410     0.0040     3.3320 ha         1 VS3       0.103500
     50 H61         -1.7750     0.0060     1.1970 ha         1 VS3       0.106000
     51 H71         -0.1660     0.5090    -2.0600 h1         1 VS3       0.012200
     52 H72         -1.6990     0.5100    -1.1770 h1         1 VS3       0.012200
     53 HN11        -1.5830    -3.6470    -2.6820 hn         1 VS3       0.200500
     54 H91         -3.3630    -2.3980    -4.6540 h1         1 VS3       0.073700
     55 H101        -2.1330    -3.4080    -6.5890 hc         1 VS3       0.019700
     56 H102        -0.8090    -3.8190    -5.4900 hc         1 VS3       0.019700
     57 H121         0.5930    -2.0900    -4.5200 ha         1 VS3       0.098500
     58 H131         1.5050     0.1870    -4.7700 ha         1 VS3       0.099500
     59 H141         0.3620     1.8210    -6.2200 ha         1 VS3       0.100000
     60 H151        -1.6900     1.1760    -7.4260 ha         1 VS3       0.099500
     61 H161        -2.6000    -1.1010    -7.1780 ha         1 VS3       0.098500
     62 HN21        -4.0930    -4.4070    -6.2870 hn         1 VS3       0.182500
     63 H181        -3.9670    -6.9670    -4.8340 h1         1 VS3       0.061700
     64 H191        -6.4660    -7.1280    -4.7250 hc         1 VS3       0.024700
     65 H192        -6.5620    -5.4310    -5.2130 hc         1 VS3       0.024700
     66 H201        -5.2450    -4.7830    -3.2230 hc         1 VS3       0.036700
     67 H202        -5.1470    -6.4810    -2.7350 hc         1 VS3       0.036700
     68 H221        -7.1010    -7.6570    -1.9030 ha         1 VS3       0.104000
     69 H231        -9.2870    -7.4610    -0.7810 ha         1 VS3       0.102000
     70 H241       -10.4990    -5.3140    -0.8110 ha         1 VS3       0.102000
     71 H251        -9.5230    -3.3630    -1.9600 ha         1 VS3       0.102000
     72 H261        -7.3360    -3.5580    -3.0790 ha         1 VS3       0.104000
     73 H281        -2.8770    -7.7980    -6.8730 h1         1 VS3       0.080700
     74 H282        -2.8940    -6.1490    -7.5130 h1         1 VS3       0.080700
     75 H311        -2.4240   -10.3680   -10.5570 ha         1 VS3       0.132500
     76 H321        -1.5200   -12.3680    -9.4360 ha         1 VS3       0.136500
     77 H341        -0.0780    -9.9300    -6.2380 ha         1 VS3       0.136500
     78 H351        -0.9780    -7.9260    -7.3550 ha         1 VS3       0.132500
     79 H271        -5.3480    -7.7790    -6.7610 hc         1 VS3       0.037700
     80 H272        -5.3640    -6.1290    -7.4000 hc         1 VS3       0.037700
     81 C28         -3.4390    -7.0830    -7.4630 c3         1 VS3      -0.069600
@<TRIPOS>BOND
     1     1     2 ar  
     2     1     6 ar  
     3     1     7 1   
     4     2     3 ar  
     5     2    46 1   
     6     3     4 ar  
     7     3    47 1   
     8     4     5 ar  
     9     4    48 1   
    10     5     6 ar  
    11     5    49 1   
    12     6    50 1   
    13     7     8 1   
    14     7    51 1   
    15     7    52 1   
    16     8     9 1   
    17     9    10 2   
    18     9    11 1   
    19    11    12 1   
    20    11    53 1   
    21    12    13 1   
    22    12    20 1   
    23    12    54 1   
    24    13    14 1   
    25    13    55 1   
    26    13    56 1   
    27    14    15 ar  
    28    14    19 ar  
    29    15    16 ar  
    30    15    57 1   
    31    16    17 ar  
    32    16    58 1   
    33    17    18 ar  
    34    17    59 1   
    35    18    19 ar  
    36    18    60 1   
    37    19    61 1   
    38    20    21 2   
    39    20    22 1   
    40    22    23 1   
    41    22    62 1   
    42    23    24 1   
    43    23    45 1   
    44    23    63 1   
    45    24    25 1   
    46    24    64 1   
    47    24    65 1   
    48    25    26 1   
    49    25    66 1   
    50    25    67 1   
    51    26    27 ar  
    52    26    31 ar  
    53    27    28 ar  
    54    27    68 1   
    55    28    29 ar  
    56    28    69 1   
    57    29    30 ar  
    58    29    70 1   
    59    30    31 ar  
    60    30    71 1   
    61    31    72 1   
    62    32    33 2   
    63    32    34 2   
    64    32    35 1   
    65    32    81 1   
    66    35    36 1   
    67    36    37 ar  
    68    36    44 ar  
    69    37    38 ar  
    70    37    75 1   
    71    38    39 ar  
    72    38    76 1   
    73    39    40 1   
    74    39    43 ar  
    75    40    41 1   
    76    40    42 1   
    77    43    44 ar  
    78    43    77 1   
    79    44    78 1   
    80    45    79 1   
    81    45    80 1   
    82    45    81 1   
    83    73    81 1   
    84    74    81 1   
@<TRIPOS>SUBSTRUCTURE
     1 VS3         1 TEMP              0 ****  ****    0 ROOT
