@<TRIPOS>MOLECULE
VS4
   87    90     1     0     0
SMALL
bcc


@<TRIPOS>ATOM
      1 C8           0.0000     0.0000     0.0000 c          1 VS4       0.602100
      2 N3           1.3480     0.0000     0.0000 n          1 VS4      -0.179800
      3 C39          2.1080     0.0000     1.2600 c3         1 VS4       0.057000
      4 C40          3.1740    -1.0970     1.1820 c3         1 VS4       0.123800
      5 N4           4.0150    -0.8810    -0.0010 n3         1 VS4      -0.524600
      6 C33          5.0250    -1.9490    -0.0020 c3         1 VS4       0.173100
      7 C49          3.1730    -1.0970    -1.1840 c3         1 VS4       0.123800
      8 C48          2.1060     0.0010    -1.2610 c3         1 VS4       0.057000
      9 O2          -0.6070    -0.1050     1.0490 o          1 VS4      -0.709100
     10 N1          -0.6740     0.1150    -1.1600 ns         1 VS4      -0.210900
     11 C9          -2.1350     0.2340    -1.1520 c3         1 VS4      -0.041300
     12 C10         -2.5250     1.7110    -1.0730 c3         1 VS4       0.021900
     13 C11         -1.9630     2.3150     0.1880 ca         1 VS4      -0.086300
     14 C12         -0.7040     2.8860     0.1800 ca         1 VS4      -0.089000
     15 C13         -0.1890     3.4380     1.3380 ca         1 VS4      -0.091000
     16 C14         -0.9320     3.4200     2.5030 ca         1 VS4      -0.095000
     17 C15         -2.1920     2.8490     2.5110 ca         1 VS4      -0.091000
     18 C16         -2.7090     2.3010     1.3520 ca         1 VS4      -0.089000
     19 C17         -2.6950    -0.3680    -2.4130 c          1 VS4       0.570100
     20 O3          -1.9500    -0.8490    -3.2380 o          1 VS4      -0.653100
     21 N2          -4.0260    -0.3720    -2.6230 ns         1 VS4      -0.188900
     22 C18         -4.5730    -0.9580    -3.8490 c3         1 VS4       0.011700
     23 C19         -4.8630    -2.4430    -3.6190 c3         1 VS4      -0.039400
     24 C20         -3.5690    -3.1630    -3.2430 c3         1 VS4       0.017900
     25 C21         -3.8540    -4.6250    -3.0180 ca         1 VS4      -0.089300
     26 C22         -3.7710    -5.5160    -4.0710 ca         1 VS4      -0.098500
     27 C23         -4.0340    -6.8570    -3.8640 ca         1 VS4      -0.098500
     28 C24         -4.3780    -7.3080    -2.6040 ca         1 VS4      -0.105000
     29 C25         -4.4590    -6.4170    -1.5510 ca         1 VS4      -0.098500
     30 C26         -4.1930    -5.0760    -1.7570 ca         1 VS4      -0.098500
     31 S1          -7.1140     2.1030    -4.9010 s6         1 VS4       0.966900
     32 N5          -6.6270     3.6710    -5.1110 n7         1 VS4      -0.404600
     33 O6          -5.6530     3.9840    -6.0890 os         1 VS4      -0.185100
     34 C34         -5.4470     5.3980    -6.0280 c3         1 VS4       0.257700
     35 C41         -4.4170     5.7990    -7.0500 ca         1 VS4      -0.119300
     36 C42         -4.8100     6.1450    -8.3290 ca         1 VS4      -0.075000
     37 C43         -3.8650     6.5140    -9.2680 ca         1 VS4      -0.103500
     38 C44         -2.5250     6.5370    -8.9270 ca         1 VS4      -0.088000
     39 C45         -2.1310     6.1920    -7.6470 ca         1 VS4      -0.103500
     40 C46         -3.0770     5.8280    -6.7080 ca         1 VS4      -0.075000
     41 O4          -7.5600     1.7360    -6.2000 o          1 VS4      -0.571300
     42 O5          -8.0030     2.1930    -3.7970 o          1 VS4      -0.571300
     43 C27         -5.8690    -0.2370    -4.2260 c3         1 VS4      -0.007400
     44 H391         1.4390    -0.2010     2.0880 h1         1 VS4       0.032950
     45 H392         2.5860     0.9620     1.3960 h1         1 VS4       0.032950
     46 H401         2.6910    -2.0640     1.1070 h1         1 VS4       0.019950
     47 H402         3.7910    -1.0640     2.0720 h1         1 VS4       0.019950
     48 H331         5.6430    -1.8600    -0.8870 h1         1 VS4       0.004033
     49 H332         5.6440    -1.8610     0.8820 h1         1 VS4       0.004033
     50 H333         4.5300    -2.9130    -0.0020 h1         1 VS4       0.004033
     51 H491         2.6900    -2.0630    -1.1090 h1         1 VS4       0.019950
     52 H492         3.7890    -1.0630    -2.0740 h1         1 VS4       0.019950
     53 H481         1.4360    -0.2010    -2.0880 h1         1 VS4       0.032950
     54 H482         2.5840     0.9630    -1.3970 h1         1 VS4       0.032950
     55 HN11        -0.1780     0.1130    -2.0290 hn         1 VS4       0.199500
     56 H91         -2.5350    -0.2910    -0.2920 h1         1 VS4       0.078700
     57 H101        -3.6050     1.8000    -1.0660 hc         1 VS4       0.018700
     58 H102        -2.1260     2.2360    -1.9330 hc         1 VS4       0.018700
     59 H121        -0.1210     2.9000    -0.7330 ha         1 VS4       0.099500
     60 H131         0.7980     3.8860     1.3320 ha         1 VS4       0.100500
     61 H141        -0.5280     3.8520     3.4100 ha         1 VS4       0.100000
     62 H151        -2.7760     2.8370     3.4240 ha         1 VS4       0.100500
     63 H161        -3.6950     1.8530     1.3580 ha         1 VS4       0.099500
     64 HN21        -4.6440    -0.0130    -1.9220 hn         1 VS4       0.181500
     65 H181        -3.8530    -0.8500    -4.6520 h1         1 VS4       0.065700
     66 H191        -5.2670    -2.8760    -4.5260 hc         1 VS4       0.024200
     67 H192        -5.5820    -2.5500    -2.8160 hc         1 VS4       0.024200
     68 H201        -3.1650    -2.7300    -2.3360 hc         1 VS4       0.033700
     69 H202        -2.8490    -3.0550    -4.0460 hc         1 VS4       0.033700
     70 H221        -3.5010    -5.1630    -5.0590 ha         1 VS4       0.105000
     71 H231        -3.9690    -7.5550    -4.6900 ha         1 VS4       0.102000
     72 H241        -4.5850    -8.3590    -2.4420 ha         1 VS4       0.102000
     73 H251        -4.7270    -6.7700    -0.5620 ha         1 VS4       0.102000
     74 H261        -4.2570    -4.3780    -0.9310 ha         1 VS4       0.105000
     75 H281        -5.1740     1.6800    -3.5480 h1         1 VS4       0.074700
     76 H282        -4.8580     1.3540    -5.2580 h1         1 VS4       0.074700
     77 HN51        -7.0480     4.4020    -4.5730 hn         1 VS4       0.345800
     78 H341        -6.3800     5.9080    -6.2360 h1         1 VS4       0.002700
     79 H342        -5.0990     5.6690    -5.0390 h1         1 VS4       0.002700
     80 H421        -5.8600     6.1270    -8.5970 ha         1 VS4       0.107000
     81 H431        -4.1730     6.7850   -10.2700 ha         1 VS4       0.105000
     82 H441        -1.7840     6.8240    -9.6630 ha         1 VS4       0.103000
     83 H451        -1.0820     6.2120    -7.3790 ha         1 VS4       0.105000
     84 H461        -2.7690     5.5570    -5.7050 ha         1 VS4       0.107000
     85 H271        -6.2720    -0.6700    -5.1330 hc         1 VS4       0.035700
     86 H272        -6.5880    -0.3450    -3.4240 hc         1 VS4       0.035700
     87 C28         -5.5780     1.2470    -4.4550 c3         1 VS4      -0.015600
@<TRIPOS>BOND
     1     1     2 1   
     2     1     9 2   
     3     1    10 1   
     4     2     3 1   
     5     2     8 1   
     6     3     4 1   
     7     3    44 1   
     8     3    45 1   
     9     4     5 1   
    10     4    46 1   
    11     4    47 1   
    12     5     6 1   
    13     5     7 1   
    14     6    48 1   
    15     6    49 1   
    16     6    50 1   
    17     7     8 1   
    18     7    51 1   
    19     7    52 1   
    20     8    53 1   
    21     8    54 1   
    22    10    11 1   
    23    10    55 1   
    24    11    12 1   
    25    11    19 1   
    26    11    56 1   
    27    12    13 1   
    28    12    57 1   
    29    12    58 1   
    30    13    14 ar  
    31    13    18 ar  
    32    14    15 ar  
    33    14    59 1   
    34    15    16 ar  
    35    15    60 1   
    36    16    17 ar  
    37    16    61 1   
    38    17    18 ar  
    39    17    62 1   
    40    18    63 1   
    41    19    20 2   
    42    19    21 1   
    43    21    22 1   
    44    21    64 1   
    45    22    23 1   
    46    22    43 1   
    47    22    65 1   
    48    23    24 1   
    49    23    66 1   
    50    23    67 1   
    51    24    25 1   
    52    24    68 1   
    53    24    69 1   
    54    25    26 ar  
    55    25    30 ar  
    56    26    27 ar  
    57    26    70 1   
    58    27    28 ar  
    59    27    71 1   
    60    28    29 ar  
    61    28    72 1   
    62    29    30 ar  
    63    29    73 1   
    64    30    74 1   
    65    31    32 1   
    66    31    41 2   
    67    31    42 2   
    68    31    87 1   
    69    32    33 1   
    70    32    77 1   
    71    33    34 1   
    72    34    35 1   
    73    34    78 1   
    74    34    79 1   
    75    35    36 ar  
    76    35    40 ar  
    77    36    37 ar  
    78    36    80 1   
    79    37    38 ar  
    80    37    81 1   
    81    38    39 ar  
    82    38    82 1   
    83    39    40 ar  
    84    39    83 1   
    85    40    84 1   
    86    43    85 1   
    87    43    86 1   
    88    43    87 1   
    89    75    87 1   
    90    76    87 1   
@<TRIPOS>SUBSTRUCTURE
     1 VS4         1 TEMP              0 ****  ****    0 ROOT
