@<TRIPOS>MOLECULE
molecule
   54    58     1     0     0
SMALL
bcc


@<TRIPOS>ATOM
      1 CAK          0.0000     0.0000     0.0000 ca         1 VS8      -0.122000
      2 CAJ          0.0130     0.0060     2.4130 ca         1 VS8      -0.122000
      3 CAF          1.3930     0.0010     2.3990 ca         1 VS8      -0.131500
      4 CAC          2.0750     0.0000     1.1960 ca         1 VS8      -0.130000
      5 CAG          1.3810     0.0000     0.0000 ca         1 VS8      -0.131500
      6 CAN         -1.2000     6.5690    -0.2990 c3         1 VS8      -0.076900
      7 CAO          0.0010     4.1440    -1.4200 c3         1 VS8      -0.094400
      8 CBC         -1.3610     4.1120    -0.7230 c3         1 VS8       0.242500
      9 CAM          0.2100     5.5120    -2.0700 c3         1 VS8      -0.076900
     10 CAL          0.1610     6.6000    -0.9950 c3         1 VS8      -0.083400
     11 CAP         -1.4090     5.2000     0.3510 c3         1 VS8      -0.094400
     12 C5          -3.0510     1.0800     0.7240 ca         1 VS8      -0.401400
     13 C4          -4.3700     0.6420     0.9380 ca         1 VS8       0.531800
     14 C6          -2.8420     2.3330     0.1280 ca         1 VS8       0.781200
     15 N1          -3.9020     3.0590    -0.2100 nb         1 VS8      -0.846000
     16 CAZ         -2.1730     0.0130     1.2180 cc         1 VS8      -0.059400
     17 C2          -5.1320     2.6120     0.0090 ca         1 VS8       0.988900
     18 NAA         -6.2050     3.4060    -0.3620 nv         1 VS8      -1.058500
     19 N3          -5.3730     1.4400     0.5710 nb         1 VS8      -0.819000
     20 CAY         -3.0030    -0.9830     1.6920 cd         1 VS8      -0.004300
     21 CAW         -0.6940     0.0060     1.2110 ca         1 VS8      -0.025800
     22 CAE         -1.1160    -4.1800     2.2510 ca         1 VS8      -0.128500
     23 CAB         -1.7150    -4.6470     3.4070 ca         1 VS8      -0.122000
     24 CAI         -1.5280    -2.9900     1.6890 ca         1 VS8      -0.109500
     25 CAD         -2.7310    -3.9240     4.0080 ca         1 VS8      -0.128500
     26 CAH         -3.1530    -2.7320     3.4580 ca         1 VS8      -0.109500
     27 CAV         -2.5570    -2.2580     2.2870 ca         1 VS8      -0.038800
     28 NAT         -4.3140    -0.5960     1.5200 na         1 VS8      -0.262100
     29 HAO2         0.0330     3.3750    -2.1820 hc         1 VS8       0.047700
     30 HAM1         1.1760     5.5330    -2.5600 hc         1 VS8       0.043950
     31 HAM2        -0.5730     5.6880    -2.7970 hc         1 VS8       0.043950
     32 HBC         -2.1410     4.2930    -1.4530 h1         1 VS8       0.083700
     33 HAL1         0.3070     7.5690    -1.4570 hc         1 VS8       0.040700
     34 HAL2         0.9420     6.4210    -0.2660 hc         1 VS8       0.040700
     35 HAN1        -1.2310     7.3380     0.4640 hc         1 VS8       0.043950
     36 HAN2        -1.9810     6.7450    -1.0280 hc         1 VS8       0.043950
     37 HAP1        -0.6250     5.0230     1.0780 hc         1 VS8       0.047700
     38 HAP2        -2.3740     5.1790     0.8420 hc         1 VS8       0.047700
     39 HAA1        -6.5980     3.3200    -1.2780 hn         1 VS8       0.441800
     40 HAA2        -6.5860     4.0660     0.2870 hn         1 VS8       0.441800
     41 HAH         -3.9480    -2.1670     3.9300 ha         1 VS8       0.138500
     42 HAI         -1.0580    -2.6250     0.7840 ha         1 VS8       0.138500
     43 HAD         -3.1940    -4.2940     4.9150 ha         1 VS8       0.133000
     44 HAB         -1.3880    -5.5830     3.8440 ha         1 VS8       0.131000
     45 HAE         -0.3200    -4.7490     1.7870 ha         1 VS8       0.133000
     46 HAJ         -0.5200     0.0090     3.3570 ha         1 VS8       0.141000
     47 HAK         -0.5430    -0.0000    -0.9370 ha         1 VS8       0.141000
     48 HAF          1.9430     0.0010     3.3330 ha         1 VS8       0.131500
     49 HAC          3.1580    -0.0020     1.1900 ha         1 VS8       0.129000
     50 HAG          1.9210    -0.0030    -0.9390 ha         1 VS8       0.131500
     51 HAT         -5.1110    -1.1420     1.7820 hn         1 VS8       0.308700
     52 NAS         -1.5610     2.8010    -0.1000 nu         1 VS8      -0.897900
     53 HAO1         0.7830     3.9690    -0.6900 hc         1 VS8       0.047700
     54 HAS         -0.7710     2.2670     0.2060 hn         1 VS8       0.457800
@<TRIPOS>BOND
     1     7     9 1
     2     7     8 1
     3     9    10 1
     4    10     6 1
     5     6    11 1
     6    11     8 1
     7     8    52 1
     8    52    14 1
     9    14    12 ar
    10    14    15 ar
    11    12    13 ar
    12    12    16 1
    13    15    17 ar
    14    17    18 1
    15    17    19 ar
    16    19    13 ar
    17    13    28 1
    18    28    20 1
    19    20    27 1
    20    20    16 2
    21    27    26 ar
    22    27    24 ar
    23    26    25 ar
    24    25    23 ar
    25    23    22 ar
    26    22    24 ar
    27    16    21 1
    28    21     2 ar
    29    21     1 ar
    30     2     3 ar
    31     3     4 ar
    32     4     5 ar
    33     5     1 ar
    34     7    53 1
    35     7    29 1
    36     9    30 1
    37     9    31 1
    38     8    32 1
    39    10    33 1
    40    10    34 1
    41     6    35 1
    42     6    36 1
    43    11    37 1
    44    11    38 1
    45    52    54 1
    46    18    39 1
    47    18    40 1
    48    26    41 1
    49    24    42 1
    50    25    43 1
    51    23    44 1
    52    22    45 1
    53     2    46 1
    54     1    47 1
    55     3    48 1
    56     4    49 1
    57     5    50 1
    58    28    51 1
@<TRIPOS>SUBSTRUCTURE
     1 VS8         1 TEMP              0 ****  ****    0 ROOT
