@<TRIPOS>MOLECULE
VS8
   54    58     1     0     0
SMALL
bcc


@<TRIPOS>ATOM
      1 CAK          0.0000     0.0000     0.0000 ca         1 VS8      -0.101500
      2 CAJ          0.0130     0.0060     2.4130 ca         1 VS8      -0.101500
      3 CAF          1.3930     0.0010     2.3990 ca         1 VS8      -0.101000
      4 CAC          2.0750     0.0000     1.1960 ca         1 VS8      -0.105000
      5 CAG          1.3810     0.0000     0.0000 ca         1 VS8      -0.101000
      6 CAN         -1.2000     6.5690    -0.2990 c3         1 VS8      -0.017400
      7 CAO          0.0010     4.1440    -1.4200 c3         1 VS8      -0.040900
      8 CBC         -1.3610     4.1120    -0.7230 c3         1 VS8       0.130500
      9 CAM          0.2100     5.5120    -2.0700 c3         1 VS8      -0.017400
     10 CAL          0.1610     6.6000    -0.9950 c3         1 VS8      -0.028400
     11 CAP         -1.4090     5.2000     0.3510 c3         1 VS8      -0.040900
     12 C5          -3.0510     1.0800     0.7240 ca         1 VS8      -0.398400
     13 C4          -4.3700     0.6420     0.9380 ca         1 VS8       0.294800
     14 C6          -2.8420     2.3330     0.1280 ca         1 VS8       0.610200
     15 N1          -3.9020     3.0590    -0.2100 nb         1 VS8      -0.746000
     16 CAZ         -2.1730     0.0130     1.2180 cc         1 VS8      -0.041400
     17 C2          -5.1320     2.6120     0.0090 ca         1 VS8       0.769900
     18 NAA         -6.2050     3.4060    -0.3620 nv         1 VS8      -0.640500
     19 N3          -5.3730     1.4400     0.5710 nb         1 VS8      -0.693000
     20 CAY         -3.0030    -0.9830     1.6920 cd         1 VS8      -0.198300
     21 CAW         -0.6940     0.0060     1.2110 ca         1 VS8      -0.010800
     22 CAE         -1.1160    -4.1800     2.2510 ca         1 VS8      -0.098000
     23 CAB         -1.7150    -4.6470     3.4070 ca         1 VS8      -0.099000
     24 CAI         -1.5280    -2.9900     1.6890 ca         1 VS8      -0.094000
     25 CAD         -2.7310    -3.9240     4.0080 ca         1 VS8      -0.098000
     26 CAH         -3.1530    -2.7320     3.4580 ca         1 VS8      -0.094000
     27 CAV         -2.5570    -2.2580     2.2870 ca         1 VS8      -0.020800
     28 NAT         -4.3140    -0.5960     1.5200 na         1 VS8       0.289900
     29 HAO2         0.0330     3.3750    -2.1820 hc         1 VS8       0.020450
     30 HAM1         1.1760     5.5330    -2.5600 hc         1 VS8       0.015450
     31 HAM2        -0.5730     5.6880    -2.7970 hc         1 VS8       0.015450
     32 HBC         -2.1410     4.2930    -1.4530 h1         1 VS8       0.061700
     33 HAL1         0.3070     7.5690    -1.4570 hc         1 VS8       0.013200
     34 HAL2         0.9420     6.4210    -0.2660 hc         1 VS8       0.013200
     35 HAN1        -1.2310     7.3380     0.4640 hc         1 VS8       0.015450
     36 HAN2        -1.9810     6.7450    -1.0280 hc         1 VS8       0.015450
     37 HAP1        -0.6250     5.0230     1.0780 hc         1 VS8       0.020450
     38 HAP2        -2.3740     5.1790     0.8420 hc         1 VS8       0.020450
     39 HAA1        -6.5980     3.3200    -1.2780 hn         1 VS8       0.275800
     40 HAA2        -6.5860     4.0660     0.2870 hn         1 VS8       0.275800
     41 HAH         -3.9480    -2.1670     3.9300 ha         1 VS8       0.111500
     42 HAI         -1.0580    -2.6250     0.7840 ha         1 VS8       0.111500
     43 HAD         -3.1940    -4.2940     4.9150 ha         1 VS8       0.104500
     44 HAB         -1.3880    -5.5830     3.8440 ha         1 VS8       0.103000
     45 HAE         -0.3200    -4.7490     1.7870 ha         1 VS8       0.104500
     46 HAJ         -0.5200     0.0090     3.3570 ha         1 VS8       0.113500
     47 HAK         -0.5430    -0.0000    -0.9370 ha         1 VS8       0.113500
     48 HAF          1.9430     0.0010     3.3330 ha         1 VS8       0.104000
     49 HAC          3.1580    -0.0020     1.1900 ha         1 VS8       0.103000
     50 HAG          1.9210    -0.0030    -0.9390 ha         1 VS8       0.104000
     51 HAT         -5.1110    -1.1420     1.7820 hn         1 VS8       0.120700
     52 NAS         -1.5610     2.8010    -0.1000 nu         1 VS8      -0.497900
     53 HAO1         0.7830     3.9690    -0.6900 hc         1 VS8       0.020450
     54 HAS         -0.7710     2.2670     0.2060 hn         1 VS8       0.312800
@<TRIPOS>BOND
     1     1     5 ar  
     2     1    21 ar  
     3     1    47 1   
     4     2     3 ar  
     5     2    21 ar  
     6     2    46 1   
     7     3     4 ar  
     8     3    48 1   
     9     4     5 ar  
    10     4    49 1   
    11     5    50 1   
    12     6    10 1   
    13     6    11 1   
    14     6    35 1   
    15     6    36 1   
    16     7     8 1   
    17     7     9 1   
    18     7    29 1   
    19     7    53 1   
    20     8    11 1   
    21     8    32 1   
    22     8    52 1   
    23     9    10 1   
    24     9    30 1   
    25     9    31 1   
    26    10    33 1   
    27    10    34 1   
    28    11    37 1   
    29    11    38 1   
    30    12    13 ar  
    31    12    14 ar  
    32    12    16 1   
    33    13    19 ar  
    34    13    28 1   
    35    14    15 ar  
    36    14    52 1   
    37    15    17 ar  
    38    16    20 2   
    39    16    21 1   
    40    17    18 1   
    41    17    19 ar  
    42    18    39 1   
    43    18    40 1   
    44    20    27 1   
    45    20    28 1   
    46    22    23 ar  
    47    22    24 ar  
    48    22    45 1   
    49    23    25 ar  
    50    23    44 1   
    51    24    27 ar  
    52    24    42 1   
    53    25    26 ar  
    54    25    43 1   
    55    26    27 ar  
    56    26    41 1   
    57    28    51 1   
    58    52    54 1   
@<TRIPOS>SUBSTRUCTURE
     1 VS8         1 TEMP              0 ****  ****    0 ROOT
