@<TRIPOS>MOLECULE
molecule
   55    59     1     0     0
SMALL
bcc


@<TRIPOS>ATOM
      1 CAP          0.0000     0.0000     0.0000 c3         1 VSA      -0.099400
      2 CAN          1.5430     0.0000     0.0000 c3         1 VSA      -0.085900
      3 CAO          1.9230     0.0000     1.5020 c3         1 VSA      -0.085900
      4 CAQ          0.8500    -0.9290     2.1250 c3         1 VSA      -0.099400
      5 CBD         -0.4390    -0.5900     1.3510 c3         1 VSA       0.051000
      6 NBE         -1.2290    -1.8060     1.1340 na         1 VSA      -0.153100
      7 CAM         -0.7750    -2.9290     0.4950 cc         1 VSA      -0.091100
      8 C4          -2.5210    -1.9840     1.5470 ca         1 VSA       0.513800
      9 N3          -3.4000    -1.2220     2.1990 nb         1 VSA      -0.796000
     10 C2          -4.6080    -1.6680     2.4650 ca         1 VSA       0.729900
     11 N1          -5.0180    -2.8720     2.1110 nb         1 VSA      -0.826000
     12 C6          -4.2130    -3.7050     1.4560 ca         1 VSA       0.770200
     13 NAA         -4.6460    -4.9660     1.0860 nv         1 VSA      -1.020500
     14 C5          -2.9160    -3.2720     1.1490 ca         1 VSA      -0.382400
     15 CBA         -1.7570    -3.8640     0.4680 cd         1 VSA      -0.077400
     16 CAY         -1.6750    -5.2180    -0.1300 ca         1 VSA      -0.039800
     17 CAK         -2.0760    -6.3320     0.6060 ca         1 VSA      -0.104000
     18 CAI         -2.0000    -7.5900     0.0480 ca         1 VSA      -0.151000
     19 CAJ         -1.2030    -5.3800    -1.4320 ca         1 VSA      -0.104000
     20 CAH         -1.1290    -6.6400    -1.9860 ca         1 VSA      -0.151000
     21 CAX         -1.5240    -7.7490    -1.2480 ca         1 VSA       0.070600
     22 NAU         -1.4470    -9.0270    -1.8120 ns         1 VSA      -0.488100
     23 CAV         -0.4620    -9.3210    -2.6840 c          1 VSA       0.781100
     24 OAB          0.4140    -8.5080    -2.9080 o          1 VSA      -0.630100
     25 NAT         -0.4470   -10.5170    -3.3060 ns         1 VSA      -0.488100
     26 CAW          0.6310   -10.8640    -4.1270 ca         1 VSA       0.071600
     27 CAF          1.9090   -10.4150    -3.8240 ca         1 VSA      -0.147000
     28 CAD          2.9720   -10.7600    -4.6360 ca         1 VSA      -0.110000
     29 CAC          2.7640   -11.5530    -5.7510 ca         1 VSA      -0.147000
     30 CAE          1.4920   -12.0010    -6.0550 ca         1 VSA      -0.110000
     31 CAG          0.4260   -11.6640    -5.2440 ca         1 VSA      -0.147000
     32 H1          -0.3700     1.0130    -0.0990 hc         1 VSA       0.058200
     33 H2          -0.3690    -0.6170    -0.8100 hc         1 VSA       0.058200
     34 H3           1.9200     0.8930    -0.4840 hc         1 VSA       0.049200
     35 H4           1.9210    -0.8920    -0.4850 hc         1 VSA       0.049200
     36 H5           2.9150    -0.4110     1.6460 hc         1 VSA       0.049200
     37 H6           1.8500     0.9990     1.9150 hc         1 VSA       0.049200
     38 H7           1.1180    -1.9680     1.9770 hc         1 VSA       0.058200
     39 H8           0.7270    -0.7100     3.1790 hc         1 VSA       0.058200
     40 H9          -1.0190     0.1410     1.9010 h1         1 VSA       0.094700
     41 H10          0.2150    -3.0510     0.0750 h4         1 VSA       0.178000
     42 H11         -5.2950    -1.0210     2.9970 h5         1 VSA       0.057100
     43 H12         -5.2630    -5.4790     1.6840 hn         1 VSA       0.444300
     44 H13         -4.3480    -5.3620     0.2160 hn         1 VSA       0.444300
     45 H14         -2.4470    -6.2080     1.6170 ha         1 VSA       0.142000
     46 H15         -2.3100    -8.4560     0.6200 ha         1 VSA       0.147000
     47 H16         -0.8950    -4.5160    -2.0080 ha         1 VSA       0.142000
     48 H17         -0.7600    -6.7660    -2.9970 ha         1 VSA       0.147000
     49 H18         -2.0560    -9.7520    -1.4870 hn         1 VSA       0.318500
     50 H19         -1.2290   -11.1350    -3.2200 hn         1 VSA       0.319500
     51 H20          2.0730    -9.7940    -2.9520 ha         1 VSA       0.145000
     52 H21          3.9700   -10.4100    -4.4000 ha         1 VSA       0.132500
     53 H22          3.5980   -11.8200    -6.3870 ha         1 VSA       0.130000
     54 H23          1.3330   -12.6230    -6.9280 ha         1 VSA       0.132500
     55 H24         -0.5700   -12.0160    -5.4840 ha         1 VSA       0.145000
@<TRIPOS>BOND
     1     1     5 1
     2     1     2 1
     3    10     9 ar
     4    10    11 ar
     5     9     8 ar
     6     5     6 1
     7     5     4 1
     8    11    12 ar
     9     8     6 1
    10     8    14 ar
    11     2     3 1
    12     6     7 1
    13    12    14 ar
    14    12    13 1
    15    14    15 1
    16     7    15 2
    17     4     3 1
    18    15    16 1
    19    17    16 ar
    20    17    18 ar
    21    16    19 ar
    22    18    21 ar
    23    19    20 ar
    24    21    20 ar
    25    21    22 1
    26    24    23 2
    27    23    22 1
    28    23    25 1
    29    25    26 1
    30    26    27 ar
    31    26    31 ar
    32    27    28 ar
    33    31    30 ar
    34    28    29 ar
    35    30    29 ar
    36     1    32 1
    37     1    33 1
    38     2    34 1
    39     2    35 1
    40     3    36 1
    41     3    37 1
    42     4    38 1
    43     4    39 1
    44     5    40 1
    45     7    41 1
    46    10    42 1
    47    13    43 1
    48    13    44 1
    49    17    45 1
    50    18    46 1
    51    19    47 1
    52    20    48 1
    53    22    49 1
    54    25    50 1
    55    27    51 1
    56    28    52 1
    57    29    53 1
    58    30    54 1
    59    31    55 1
@<TRIPOS>SUBSTRUCTURE
     1 VSA         1 TEMP              0 ****  ****    0 ROOT
