@<TRIPOS>MOLECULE
VSA
   55    59     1     0     0
SMALL
bcc


@<TRIPOS>ATOM
      1 CAP          0.0000     0.0000     0.0000 c3         1 VSA      -0.041400
      2 CAN          1.5430     0.0000     0.0000 c3         1 VSA      -0.023400
      3 CAO          1.9230     0.0000     1.5020 c3         1 VSA      -0.023400
      4 CAQ          0.8500    -0.9290     2.1250 c3         1 VSA      -0.041400
      5 CBD         -0.4390    -0.5900     1.3510 c3         1 VSA      -0.077000
      6 NBE         -1.2290    -1.8060     1.1340 na         1 VSA       0.326900
      7 CAM         -0.7750    -2.9290     0.4950 cc         1 VSA      -0.258100
      8 C4          -2.5210    -1.9840     1.5470 ca         1 VSA       0.300800
      9 N3          -3.4000    -1.2220     2.1990 nb         1 VSA      -0.681000
     10 C2          -4.6080    -1.6680     2.4650 ca         1 VSA       0.678900
     11 N1          -5.0180    -2.8720     2.1110 nb         1 VSA      -0.732000
     12 C6          -4.2130    -3.7050     1.4560 ca         1 VSA       0.591200
     13 NAA         -4.6460    -4.9660     1.0860 nv         1 VSA      -0.551500
     14 C5          -2.9160    -3.2720     1.1490 ca         1 VSA      -0.387400
     15 CBA         -1.7570    -3.8640     0.4680 cd         1 VSA      -0.051400
     16 CAY         -1.6750    -5.2180    -0.1300 ca         1 VSA      -0.023800
     17 CAK         -2.0760    -6.3320     0.6060 ca         1 VSA      -0.083500
     18 CAI         -2.0000    -7.5900     0.0480 ca         1 VSA      -0.121000
     19 CAJ         -1.2030    -5.3800    -1.4320 ca         1 VSA      -0.083500
     20 CAH         -1.1290    -6.6400    -1.9860 ca         1 VSA      -0.121000
     21 CAX         -1.5240    -7.7490    -1.2480 ca         1 VSA      -0.078400
     22 NAU         -1.4470    -9.0270    -1.8120 ns         1 VSA      -0.051100
     23 CAV         -0.4620    -9.3210    -2.6840 c          1 VSA       0.552100
     24 OAB          0.4140    -8.5080    -2.9080 o          1 VSA      -0.679100
     25 NAT         -0.4470   -10.5170    -3.3060 ns         1 VSA      -0.049100
     26 CAW          0.6310   -10.8640    -4.1270 ca         1 VSA      -0.075400
     27 CAF          1.9090   -10.4150    -3.8240 ca         1 VSA      -0.121500
     28 CAD          2.9720   -10.7600    -4.6360 ca         1 VSA      -0.081000
     29 CAC          2.7640   -11.5530    -5.7510 ca         1 VSA      -0.118000
     30 CAE          1.4920   -12.0010    -6.0550 ca         1 VSA      -0.081000
     31 CAG          0.4260   -11.6640    -5.2440 ca         1 VSA      -0.121500
     32 H1          -0.3700     1.0130    -0.0990 hc         1 VSA       0.027450
     33 H2          -0.3690    -0.6170    -0.8100 hc         1 VSA       0.027450
     34 H3           1.9200     0.8930    -0.4840 hc         1 VSA       0.018950
     35 H4           1.9210    -0.8920    -0.4850 hc         1 VSA       0.018950
     36 H5           2.9150    -0.4110     1.6460 hc         1 VSA       0.018950
     37 H6           1.8500     0.9990     1.9150 hc         1 VSA       0.018950
     38 H7           1.1180    -1.9680     1.9770 hc         1 VSA       0.027450
     39 H8           0.7270    -0.7100     3.1790 hc         1 VSA       0.027450
     40 H9          -1.0190     0.1410     1.9010 h1         1 VSA       0.067700
     41 H10          0.2150    -3.0510     0.0750 h4         1 VSA       0.154000
     42 H11         -5.2950    -1.0210     2.9970 h5         1 VSA      -0.006900
     43 H12         -5.2630    -5.4790     1.6840 hn         1 VSA       0.278800
     44 H13         -4.3480    -5.3620     0.2160 hn         1 VSA       0.278800
     45 H14         -2.4470    -6.2080     1.6170 ha         1 VSA       0.112500
     46 H15         -2.3100    -8.4560     0.6200 ha         1 VSA       0.124000
     47 H16         -0.8950    -4.5160    -2.0080 ha         1 VSA       0.112500
     48 H17         -0.7600    -6.7660    -2.9970 ha         1 VSA       0.124000
     49 H18         -2.0560    -9.7520    -1.4870 hn         1 VSA       0.160500
     50 H19         -1.2290   -11.1350    -3.2200 hn         1 VSA       0.161500
     51 H20          2.0730    -9.7940    -2.9520 ha         1 VSA       0.122500
     52 H21          3.9700   -10.4100    -4.4000 ha         1 VSA       0.102500
     53 H22          3.5980   -11.8200    -6.3870 ha         1 VSA       0.103000
     54 H23          1.3330   -12.6230    -6.9280 ha         1 VSA       0.102500
     55 H24         -0.5700   -12.0160    -5.4840 ha         1 VSA       0.122500
@<TRIPOS>BOND
     1     1     2 1   
     2     1     5 1   
     3     1    32 1   
     4     1    33 1   
     5     2     3 1   
     6     2    34 1   
     7     2    35 1   
     8     3     4 1   
     9     3    36 1   
    10     3    37 1   
    11     4     5 1   
    12     4    38 1   
    13     4    39 1   
    14     5     6 1   
    15     5    40 1   
    16     6     7 1   
    17     6     8 1   
    18     7    15 2   
    19     7    41 1   
    20     8     9 ar  
    21     8    14 ar  
    22     9    10 ar  
    23    10    11 ar  
    24    10    42 1   
    25    11    12 ar  
    26    12    13 1   
    27    12    14 ar  
    28    13    43 1   
    29    13    44 1   
    30    14    15 1   
    31    15    16 1   
    32    16    17 ar  
    33    16    19 ar  
    34    17    18 ar  
    35    17    45 1   
    36    18    21 ar  
    37    18    46 1   
    38    19    20 ar  
    39    19    47 1   
    40    20    21 ar  
    41    20    48 1   
    42    21    22 1   
    43    22    23 1   
    44    22    49 1   
    45    23    24 2   
    46    23    25 1   
    47    25    26 1   
    48    25    50 1   
    49    26    27 ar  
    50    26    31 ar  
    51    27    28 ar  
    52    27    51 1   
    53    28    29 ar  
    54    28    52 1   
    55    29    30 ar  
    56    29    53 1   
    57    30    31 ar  
    58    30    54 1   
    59    31    55 1   
@<TRIPOS>SUBSTRUCTURE
     1 VSA         1 TEMP              0 ****  ****    0 ROOT
