@<TRIPOS>MOLECULE
VSB
   70    75     1     0     0
SMALL
bcc


@<TRIPOS>ATOM
      1 CAX          0.0000     0.0000     0.0000 c3         1 VSB       0.097300
      2 CAY          1.5310     0.0000     0.0000 c3         1 VSB       0.158800
      3 NAZ          2.0180     0.0000     1.3870 n3         1 VSB      -0.541600
      4 CBC          1.6370    -1.2380     2.0790 c3         1 VSB       0.168100
      5 CBA          1.5320     1.1810     2.1130 c3         1 VSB       0.158800
      6 CBB          0.0010     1.1810     2.1120 c3         1 VSB       0.097300
      7 NAW         -0.4870     1.1810     0.7270 n3         1 VSB      -0.533600
      8 CAT         -1.9530     1.2570     0.6840 c3         1 VSB       0.132500
      9 CAU         -2.4210     1.2550    -0.7730 c3         1 VSB      -0.086400
     10 CAV         -3.9490     1.3350    -0.8170 c3         1 VSB      -0.027400
     11 CAS         -2.4170     2.5460     1.3670 c3         1 VSB      -0.086400
     12 CAR         -3.9440     2.6260     1.3220 c3         1 VSB      -0.027400
     13 CAQ         -4.4120     2.6230    -0.1340 c3         1 VSB      -0.074000
     14 NAG         -3.8430     3.7780    -0.8330 na         1 VSB       0.330900
     15 CAH         -2.5040     4.0200    -0.9810 cc         1 VSB      -0.297100
     16 C4          -4.5740     4.7670    -1.4340 ca         1 VSB       0.272800
     17 N3          -5.8780     4.9990    -1.5770 nb         1 VSB      -0.639000
     18 C2          -6.3040     6.0640    -2.2220 ca         1 VSB       0.645900
     19 N1          -5.4830     6.9490    -2.7580 nb         1 VSB      -0.677000
     20 C6          -4.1640     6.8040    -2.6660 ca         1 VSB       0.593200
     21 NAK         -3.3070     7.7340    -3.2280 nv         1 VSB      -0.651500
     22 C5          -3.6640     5.6850    -1.9860 ca         1 VSB      -0.342400
     23 CAI         -2.3240     5.1700    -1.6760 cd         1 VSB      -0.054400
     24 CAJ         -1.0280     5.7880    -2.0470 ca         1 VSB      -0.006800
     25 CAP         -0.0420     5.9760    -1.0810 ca         1 VSB      -0.083000
     26 CAO          1.1630     6.5510    -1.4290 ca         1 VSB      -0.120000
     27 CAL         -0.7930     6.1770    -3.3650 ca         1 VSB      -0.083000
     28 CAM          0.4140     6.7520    -3.7080 ca         1 VSB      -0.120000
     29 CAN          1.3930     6.9420    -2.7420 ca         1 VSB       0.099100
     30 OBD          2.5810     7.5090    -3.0820 os         1 VSB      -0.220200
     31 CBE          2.6110     8.8500    -3.2910 ca         1 VSB       0.145100
     32 CBF          3.7690     9.4560    -3.7570 ca         1 VSB      -0.171500
     33 CBG          3.7970    10.8210    -3.9680 ca         1 VSB      -0.061000
     34 CBH          2.6720    11.5840    -3.7160 ca         1 VSB      -0.143000
     35 CBI          1.5170    10.9840    -3.2510 ca         1 VSB      -0.061000
     36 CBJ          1.4810     9.6180    -3.0440 ca         1 VSB      -0.171500
     37 H1          -0.3600     0.0320    -1.0210 h1         1 VSB       0.022450
     38 H2           1.8910    -0.8860    -0.5080 h1         1 VSB       0.029950
     39 H3           1.8910     0.8860    -0.5080 h1         1 VSB       0.029950
     40 H5           2.0510    -1.2340     3.0800 h1         1 VSB       0.004700
     41 H6           0.5570    -1.3020     2.1350 h1         1 VSB       0.004700
     42 H7           2.0220    -2.0900     1.5320 h1         1 VSB       0.004700
     43 H8           1.8910     1.1490     3.1340 h1         1 VSB       0.029950
     44 H9           1.8920     2.0780     1.6240 h1         1 VSB       0.029950
     45 H10         -0.3590     0.2960     2.6210 h1         1 VSB       0.022450
     46 H11         -2.3790     0.4050     1.1990 h1         1 VSB       0.014700
     47 H12         -2.0950     0.3410    -1.2550 hc         1 VSB       0.046950
     48 H13         -4.3690     0.4820    -0.2980 hc         1 VSB       0.027950
     49 H14         -4.2800     1.3360    -1.8490 hc         1 VSB       0.027950
     50 H15         -2.0870     2.5460     2.3990 hc         1 VSB       0.046950
     51 H16         -1.9970     3.4000     0.8480 hc         1 VSB       0.046950
     52 H17         -4.3640     1.7700     1.8370 hc         1 VSB       0.027950
     53 H18         -4.2710     3.5390     1.8040 hc         1 VSB       0.027950
     54 H19         -5.4940     2.6760    -0.1620 h1         1 VSB       0.065700
     55 H20         -1.7100     3.3880    -0.6030 h4         1 VSB       0.209000
     56 H22         -7.3710     6.2200    -2.3200 h5         1 VSB      -0.003900
     57 H23         -3.1390     7.7260    -4.2140 hn         1 VSB       0.281300
     58 H24         -2.9090     8.4540    -2.6580 hn         1 VSB       0.281300
     59 H26         -0.2210     5.6710    -0.0570 ha         1 VSB       0.112500
     60 H27          1.9290     6.6990    -0.6780 ha         1 VSB       0.117500
     61 H28         -1.5560     6.0290    -4.1190 ha         1 VSB       0.112500
     62 H29          0.5970     7.0570    -4.7310 ha         1 VSB       0.117500
     63 H30          4.6510     8.8590    -3.9550 ha         1 VSB       0.120500
     64 H31          4.7010    11.2930    -4.3320 ha         1 VSB       0.101000
     65 H32          2.6970    12.6540    -3.8800 ha         1 VSB       0.105000
     66 H33          0.6360    11.5840    -3.0560 ha         1 VSB       0.101000
     67 H34          0.5760     9.1490    -2.6800 ha         1 VSB       0.120500
     68 H35         -0.3600    -0.8970     0.4880 h1         1 VSB       0.022450
     69 H4          -0.3580     2.0680     2.6200 h1         1 VSB       0.022450
     70 H36         -2.0010     2.1110    -1.2870 hc         1 VSB       0.046950
@<TRIPOS>BOND
     1     1     2 1   
     2     1     7 1   
     3     1    37 1   
     4     1    68 1   
     5     2     3 1   
     6     2    38 1   
     7     2    39 1   
     8     3     4 1   
     9     3     5 1   
    10     4    40 1   
    11     4    41 1   
    12     4    42 1   
    13     5     6 1   
    14     5    43 1   
    15     5    44 1   
    16     6     7 1   
    17     6    45 1   
    18     6    69 1   
    19     7     8 1   
    20     8     9 1   
    21     8    11 1   
    22     8    46 1   
    23     9    10 1   
    24     9    47 1   
    25     9    70 1   
    26    10    13 1   
    27    10    48 1   
    28    10    49 1   
    29    11    12 1   
    30    11    50 1   
    31    11    51 1   
    32    12    13 1   
    33    12    52 1   
    34    12    53 1   
    35    13    14 1   
    36    13    54 1   
    37    14    15 1   
    38    14    16 1   
    39    15    23 2   
    40    15    55 1   
    41    16    17 ar  
    42    16    22 ar  
    43    17    18 ar  
    44    18    19 ar  
    45    18    56 1   
    46    19    20 ar  
    47    20    21 1   
    48    20    22 ar  
    49    21    57 1   
    50    21    58 1   
    51    22    23 1   
    52    23    24 1   
    53    24    25 ar  
    54    24    27 ar  
    55    25    26 ar  
    56    25    59 1   
    57    26    29 ar  
    58    26    60 1   
    59    27    28 ar  
    60    27    61 1   
    61    28    29 ar  
    62    28    62 1   
    63    29    30 1   
    64    30    31 1   
    65    31    32 ar  
    66    31    36 ar  
    67    32    33 ar  
    68    32    63 1   
    69    33    34 ar  
    70    33    64 1   
    71    34    35 ar  
    72    34    65 1   
    73    35    36 ar  
    74    35    66 1   
    75    36    67 1   
@<TRIPOS>SUBSTRUCTURE
     1 VSB         1 TEMP              0 ****  ****    0 ROOT
