@<TRIPOS>MOLECULE
VSE
   70    75     1     0     0
SMALL
bcc


@<TRIPOS>ATOM
      1 NAK          0.0000     0.0000     0.0000 nv         1 VSE      -0.547500
      2 C6           1.3830     0.0000     0.0000 ca         1 VSE       0.591200
      3 C5           2.1010     0.0000     1.2040 ca         1 VSE      -0.386400
      4 CAI          1.7430     0.0000     2.6280 cc         1 VSE      -0.056400
      5 CAJ          0.3740     0.0000     3.1980 ca         1 VSE      -0.012800
      6 CAL          0.0280    -0.9240     4.1830 ca         1 VSE      -0.089000
      7 CAM         -1.2450    -0.9220     4.7120 ca         1 VSE      -0.122000
      8 CAN         -2.1830    -0.0010     4.2630 ca         1 VSE       0.102100
      9 OBD         -3.4380    -0.0010     4.7860 os         1 VSE      -0.218200
     10 CBE         -4.4660    -0.3620     3.9740 ca         1 VSE       0.143100
     11 CBF         -4.2090    -0.8360     2.6950 ca         1 VSE      -0.170500
     12 CBG         -5.2570    -1.2020     1.8740 ca         1 VSE      -0.060500
     13 CBH         -6.5610    -1.0960     2.3220 ca         1 VSE      -0.140000
     14 CBI         -6.8190    -0.6230     3.5960 ca         1 VSE      -0.060500
     15 CBJ         -5.7750    -0.2610     4.4260 ca         1 VSE      -0.170500
     16 CAO         -1.8420     0.9210     3.2830 ca         1 VSE      -0.122000
     17 CAP         -0.5670     0.9270     2.7540 ca         1 VSE      -0.089000
     18 CAH          2.9090     0.0000     3.3190 cd         1 VSE      -0.257100
     19 NAG          3.9620    -0.0000     2.4430 na         1 VSE       0.328900
     20 C4           3.5060    -0.0000     1.1530 ca         1 VSE       0.301800
     21 N3           4.0990    -0.0000    -0.0410 nb         1 VSE      -0.680000
     22 C2           3.3860    -0.0000    -1.1450 ca         1 VSE       0.681900
     23 N1           2.0640    -0.0050    -1.1420 nb         1 VSE      -0.732000
     24 CAQ          5.3740    -0.0010     2.8320 c3         1 VSE      -0.080000
     25 CAV          5.6750    -1.2500     3.6630 c3         1 VSE      -0.033400
     26 CAU          7.1500    -1.2490     4.0690 c3         1 VSE      -0.048900
     27 CAT          7.4500    -0.0000     4.9000 c3         1 VSE       0.130500
     28 CAS          7.1490     1.2500     4.0690 c3         1 VSE      -0.048900
     29 CAR          5.6750     1.2490     3.6630 c3         1 VSE      -0.033400
     30 NAW          8.8660    -0.0000     5.2900 n3         1 VSE      -0.537600
     31 CAX          9.7360     0.1480     4.1140 c3         1 VSE       0.140800
     32 CAY         11.2000     0.0640     4.5530 c3         1 VSE       0.155800
     33 NAZ         11.4740     1.1150     5.5430 n3         1 VSE      -0.549600
     34 CBC         12.8900     1.1150     5.9330 c3         1 VSE       0.189100
     35 CBA         10.6040     0.9670     6.7180 c3         1 VSE       0.155800
     36 CBB          9.1400     1.0520     6.2800 c3         1 VSE       0.140800
     37 H1          -0.5000     0.4660    -0.7310 hn         1 VSE       0.278800
     38 H2          -0.5000    -0.5150     0.6980 hn         1 VSE       0.278800
     39 H3           0.7590    -1.6430     4.5330 ha         1 VSE       0.115000
     40 H4          -1.5150    -1.6400     5.4770 ha         1 VSE       0.119000
     41 H5          -3.1890    -0.9190     2.3430 ha         1 VSE       0.120000
     42 H6          -5.0570    -1.5720     0.8750 ha         1 VSE       0.101500
     43 H7          -7.3810    -1.3810     1.6750 ha         1 VSE       0.105000
     44 H8          -7.8410    -0.5430     3.9470 ha         1 VSE       0.101500
     45 H9          -5.9770     0.1090     5.4230 ha         1 VSE       0.120000
     46 H10         -2.5750     1.6400     2.9370 ha         1 VSE       0.119000
     47 H11         -0.3010     1.6470     1.9900 ha         1 VSE       0.115000
     48 H12          2.9950     0.0120     4.3990 h4         1 VSE       0.152000
     49 H13          3.9030    -0.0040    -2.0970 h5         1 VSE      -0.005900
     50 H14          5.9980    -0.0010     1.9460 h1         1 VSE       0.070700
     51 H15          5.4640    -2.1330     3.0730 hc         1 VSE       0.024700
     52 H16          5.0570    -1.2470     4.5530 hc         1 VSE       0.024700
     53 H17          7.3600    -2.1330     4.6590 hc         1 VSE       0.030950
     54 H18          7.7670    -1.2470     3.1790 hc         1 VSE       0.030950
     55 H19          6.8270    -0.0000     5.7860 h1         1 VSE       0.037700
     56 H20          7.7670     1.2480     3.1790 hc         1 VSE       0.030950
     57 H21          7.3600     2.1340     4.6590 hc         1 VSE       0.030950
     58 H22          5.4630     2.1320     3.0740 hc         1 VSE       0.024700
     59 H23          5.0570     1.2460     4.5530 hc         1 VSE       0.024700
     60 H25          9.5540     1.1100     3.6500 h1         1 VSE       0.019950
     61 H26          9.5260    -0.6460     3.4080 h1         1 VSE       0.019950
     62 H27         11.3870    -0.9060     4.9970 h1         1 VSE       0.013700
     63 H28         11.8420     0.2040     3.6920 h1         1 VSE       0.013700
     64 H30         13.5060     1.2580     5.0540 h1         1 VSE       0.000700
     65 H31         13.0710     1.9190     6.6360 h1         1 VSE       0.000700
     66 H32         13.1370     0.1670     6.3970 h1         1 VSE       0.000700
     67 H33         10.7860     0.0050     7.1820 h1         1 VSE       0.013700
     68 H34         10.8150     1.7600     7.4250 h1         1 VSE       0.013700
     69 H35          8.9530     2.0220     5.8360 h1         1 VSE       0.019950
     70 H36          8.4980     0.9120     7.1410 h1         1 VSE       0.019950
@<TRIPOS>BOND
     1     1     2 1   
     2     1    37 1   
     3     1    38 1   
     4     2     3 ar  
     5     2    23 ar  
     6     3     4 1   
     7     3    20 ar  
     8     4     5 1   
     9     4    18 2   
    10     5     6 ar  
    11     5    17 ar  
    12     6     7 ar  
    13     6    39 1   
    14     7     8 ar  
    15     7    40 1   
    16     8     9 1   
    17     8    16 ar  
    18     9    10 1   
    19    10    11 ar  
    20    10    15 ar  
    21    11    12 ar  
    22    11    41 1   
    23    12    13 ar  
    24    12    42 1   
    25    13    14 ar  
    26    13    43 1   
    27    14    15 ar  
    28    14    44 1   
    29    15    45 1   
    30    16    17 ar  
    31    16    46 1   
    32    17    47 1   
    33    18    19 1   
    34    18    48 1   
    35    19    20 1   
    36    19    24 1   
    37    20    21 ar  
    38    21    22 ar  
    39    22    23 ar  
    40    22    49 1   
    41    24    25 1   
    42    24    29 1   
    43    24    50 1   
    44    25    26 1   
    45    25    51 1   
    46    25    52 1   
    47    26    27 1   
    48    26    53 1   
    49    26    54 1   
    50    27    28 1   
    51    27    30 1   
    52    27    55 1   
    53    28    29 1   
    54    28    56 1   
    55    28    57 1   
    56    29    58 1   
    57    29    59 1   
    58    30    31 1   
    59    30    36 1   
    60    31    32 1   
    61    31    60 1   
    62    31    61 1   
    63    32    33 1   
    64    32    62 1   
    65    32    63 1   
    66    33    34 1   
    67    33    35 1   
    68    34    64 1   
    69    34    65 1   
    70    34    66 1   
    71    35    36 1   
    72    35    67 1   
    73    35    68 1   
    74    36    69 1   
    75    36    70 1   
@<TRIPOS>SUBSTRUCTURE
     1 VSE         1 TEMP              0 ****  ****    0 ROOT
