@<TRIPOS>MOLECULE
molecule
   70    75     1     0     0
SMALL
bcc


@<TRIPOS>ATOM
      1 NAK          0.0000     0.0000     0.0000 nv         1 VSE      -1.017500
      2 C6           1.3830     0.0000     0.0000 ca         1 VSE       0.770200
      3 C5           2.1010     0.0000     1.2040 ca         1 VSE      -0.382400
      4 CAI          1.7430     0.0000     2.6280 cc         1 VSE      -0.082400
      5 CAJ          0.3740     0.0000     3.1980 ca         1 VSE      -0.022800
      6 CAL          0.0280    -0.9240     4.1830 ca         1 VSE      -0.113000
      7 CAM         -1.2450    -0.9220     4.7120 ca         1 VSE      -0.144500
      8 CAN         -2.1830    -0.0010     4.2630 ca         1 VSE       0.100100
      9 OBD         -3.4380    -0.0010     4.7860 os         1 VSE      -0.247200
     10 CBE         -4.4660    -0.3620     3.9740 ca         1 VSE       0.136100
     11 CBF         -4.2090    -0.8360     2.6950 ca         1 VSE      -0.181500
     12 CBG         -5.2570    -1.2020     1.8740 ca         1 VSE      -0.094000
     13 CBH         -6.5610    -1.0960     2.3220 ca         1 VSE      -0.162000
     14 CBI         -6.8190    -0.6230     3.5960 ca         1 VSE      -0.094000
     15 CBJ         -5.7750    -0.2610     4.4260 ca         1 VSE      -0.181500
     16 CAO         -1.8420     0.9210     3.2830 ca         1 VSE      -0.144500
     17 CAP         -0.5670     0.9270     2.7540 ca         1 VSE      -0.113000
     18 CAH          2.9090     0.0000     3.3190 cd         1 VSE      -0.088100
     19 NAG          3.9620    -0.0000     2.4430 na         1 VSE      -0.153100
     20 C4           3.5060    -0.0000     1.1530 ca         1 VSE       0.514800
     21 N3           4.0990    -0.0000    -0.0410 nb         1 VSE      -0.795000
     22 C2           3.3860    -0.0000    -1.1450 ca         1 VSE       0.731900
     23 N1           2.0640    -0.0050    -1.1420 nb         1 VSE      -0.826000
     24 CAQ          5.3740    -0.0010     2.8320 c3         1 VSE       0.052000
     25 CAV          5.6750    -1.2500     3.6630 c3         1 VSE      -0.092900
     26 CAU          7.1500    -1.2490     4.0690 c3         1 VSE      -0.095900
     27 CAT          7.4500    -0.0000     4.9000 c3         1 VSE       0.168500
     28 CAS          7.1490     1.2500     4.0690 c3         1 VSE      -0.095900
     29 CAR          5.6750     1.2490     3.6630 c3         1 VSE      -0.092900
     30 NAW          8.8660    -0.0000     5.2900 n3         1 VSE      -0.724600
     31 CAX          9.7360     0.1480     4.1140 c3         1 VSE       0.158800
     32 CAY         11.2000     0.0640     4.5530 c3         1 VSE       0.163800
     33 NAZ         11.4740     1.1150     5.5430 n3         1 VSE      -0.734600
     34 CBC         12.8900     1.1150     5.9330 c3         1 VSE       0.153100
     35 CBA         10.6040     0.9670     6.7180 c3         1 VSE       0.163800
     36 CBB          9.1400     1.0520     6.2800 c3         1 VSE       0.158800
     37 H1          -0.5000     0.4660    -0.7310 hn         1 VSE       0.444300
     38 H2          -0.5000    -0.5150     0.6980 hn         1 VSE       0.444300
     39 H3           0.7590    -1.6430     4.5330 ha         1 VSE       0.145000
     40 H4          -1.5150    -1.6400     5.4770 ha         1 VSE       0.147000
     41 H5          -3.1890    -0.9190     2.3430 ha         1 VSE       0.142500
     42 H6          -5.0570    -1.5720     0.8750 ha         1 VSE       0.133000
     43 H7          -7.3810    -1.3810     1.6750 ha         1 VSE       0.131000
     44 H8          -7.8410    -0.5430     3.9470 ha         1 VSE       0.133000
     45 H9          -5.9770     0.1090     5.4230 ha         1 VSE       0.142500
     46 H10         -2.5750     1.6400     2.9370 ha         1 VSE       0.147000
     47 H11         -0.3010     1.6470     1.9900 ha         1 VSE       0.145000
     48 H12          2.9950     0.0120     4.3990 h4         1 VSE       0.176000
     49 H13          3.9030    -0.0040    -2.0970 h5         1 VSE       0.058100
     50 H14          5.9980    -0.0010     1.9460 h1         1 VSE       0.094700
     51 H15          5.4640    -2.1330     3.0730 hc         1 VSE       0.052950
     52 H16          5.0570    -1.2470     4.5530 hc         1 VSE       0.052950
     53 H17          7.3600    -2.1330     4.6590 hc         1 VSE       0.055450
     54 H18          7.7670    -1.2470     3.1790 hc         1 VSE       0.055450
     55 H19          6.8270    -0.0000     5.7860 h1         1 VSE       0.063700
     56 H20          7.7670     1.2480     3.1790 hc         1 VSE       0.055450
     57 H21          7.3600     2.1340     4.6590 hc         1 VSE       0.055450
     58 H22          5.4630     2.1320     3.0740 hc         1 VSE       0.052950
     59 H23          5.0570     1.2460     4.5530 hc         1 VSE       0.052950
     60 H25          9.5540     1.1100     3.6500 h1         1 VSE       0.042950
     61 H26          9.5260    -0.6460     3.4080 h1         1 VSE       0.042950
     62 H27         11.3870    -0.9060     4.9970 h1         1 VSE       0.040950
     63 H28         11.8420     0.2040     3.6920 h1         1 VSE       0.040950
     64 H30         13.5060     1.2580     5.0540 h1         1 VSE       0.032367
     65 H31         13.0710     1.9190     6.6360 h1         1 VSE       0.032367
     66 H32         13.1370     0.1670     6.3970 h1         1 VSE       0.032367
     67 H33         10.7860     0.0050     7.1820 h1         1 VSE       0.040950
     68 H34         10.8150     1.7600     7.4250 h1         1 VSE       0.040950
     69 H35          8.9530     2.0220     5.8360 h1         1 VSE       0.042950
     70 H36          8.4980     0.9120     7.1410 h1         1 VSE       0.042950
@<TRIPOS>BOND
     1    29    28 1
     2    29    24 1
     3    28    27 1
     4    31    32 1
     5    31    30 1
     6    32    33 1
     7    17    16 ar
     8    17     5 ar
     9    22    23 ar
    10    22    21 ar
    11    27    30 1
    12    27    26 1
    13    16     8 ar
    14    23     2 ar
    15    21    20 ar
    16    30    36 1
    17     2     1 1
    18     2     3 ar
    19    20     3 ar
    20    20    19 1
    21     3     4 1
    22    24    19 1
    23    24    25 1
    24    19    18 1
    25    18     4 2
    26     4     5 1
    27    33    34 1
    28    33    35 1
    29     5     6 ar
    30    36    35 1
    31     8     9 1
    32     8     7 ar
    33     9    10 1
    34    25    26 1
    35     6     7 ar
    36    10    11 ar
    37    10    15 ar
    38    11    12 ar
    39    15    14 ar
    40    12    13 ar
    41    14    13 ar
    42     1    37 1
    43     1    38 1
    44     6    39 1
    45     7    40 1
    46    11    41 1
    47    12    42 1
    48    13    43 1
    49    14    44 1
    50    15    45 1
    51    16    46 1
    52    17    47 1
    53    18    48 1
    54    22    49 1
    55    24    50 1
    56    25    51 1
    57    25    52 1
    58    26    53 1
    59    26    54 1
    60    27    55 1
    61    28    56 1
    62    28    57 1
    63    29    58 1
    64    29    59 1
    65    31    60 1
    66    31    61 1
    67    32    62 1
    68    32    63 1
    69    34    64 1
    70    34    65 1
    71    34    66 1
    72    35    67 1
    73    35    68 1
    74    36    69 1
    75    36    70 1
@<TRIPOS>SUBSTRUCTURE
     1 VSE         1 TEMP              0 ****  ****    0 ROOT
