@<TRIPOS>MOLECULE
molecule
   51    55     1     0     0
SMALL
bcc


@<TRIPOS>ATOM
      1 NAK          0.0000     0.0000     0.0000 nv         1 VSF      -1.017500
      2 C6           1.3830     0.0000     0.0000 ca         1 VSF       0.770200
      3 N1           2.0650     0.0000     1.1420 nb         1 VSF      -0.825000
      4 C2           3.3860    -0.0050     1.1460 ca         1 VSF       0.732900
      5 N3           4.0990    -0.0090     0.0410 nb         1 VSF      -0.798000
      6 C4           3.5060    -0.0090    -1.1530 ca         1 VSF       0.514800
      7 C5           2.1010    -0.0040    -1.2040 ca         1 VSF      -0.381400
      8 NAG          3.9620    -0.0120    -2.4430 na         1 VSF      -0.154100
      9 CAQ          5.3750    -0.0180    -2.8320 c3         1 VSF       0.055000
     10 CAV          5.6790     1.2250    -3.6750 c3         1 VSF      -0.133400
     11 CAU          7.1360     1.1700    -4.1420 c3         1 VSF       0.139400
     12 OAT          7.3530    -0.0330    -4.8810 os         1 VSF      -0.420600
     13 CAS          7.1290    -1.2280    -4.1300 c3         1 VSF       0.139400
     14 CAR          5.6720    -1.2690    -3.6630 c3         1 VSF      -0.133400
     15 CAH          2.9090    -0.0090    -3.3190 cc         1 VSF      -0.088100
     16 CAI          1.7430    -0.0090    -2.6280 cd         1 VSF      -0.080400
     17 CAJ          0.3750    -0.0110    -3.1980 ca         1 VSF      -0.024800
     18 CAL          0.0280     0.9090    -4.1850 ca         1 VSF      -0.112000
     19 CAM         -1.2460     0.9040    -4.7140 ca         1 VSF      -0.145000
     20 CAN         -2.1830    -0.0160    -4.2630 ca         1 VSF       0.101100
     21 CAO         -1.8410    -0.9330    -3.2790 ca         1 VSF      -0.145000
     22 CAP         -0.5670    -0.9380    -2.7510 ca         1 VSF      -0.112000
     23 OBD         -3.4370    -0.0180    -4.7860 os         1 VSF      -0.247200
     24 CBE         -4.4660     0.3440    -3.9760 ca         1 VSF       0.136100
     25 CBJ         -4.2100     0.8230    -2.6990 ca         1 VSF      -0.181500
     26 CBI         -5.2590     1.1900    -1.8780 ca         1 VSF      -0.094500
     27 CBH         -6.5620     1.0820    -2.3270 ca         1 VSF      -0.162000
     28 CBG         -6.8190     0.6050    -3.5990 ca         1 VSF      -0.094500
     29 CBF         -5.7740     0.2420    -4.4260 ca         1 VSF      -0.181500
     30 H1          -0.5000     0.5230    -0.6920 hn         1 VSF       0.444300
     31 H2          -0.5000    -0.4680     0.7300 hn         1 VSF       0.444300
     32 H3           3.9040    -0.0050     2.0970 h5         1 VSF       0.059100
     33 H4           6.0000    -0.0150    -1.9470 h1         1 VSF       0.093700
     34 H5           5.0240     1.2460    -4.5370 hc         1 VSF       0.061700
     35 H6           5.5250     2.1140    -3.0760 hc         1 VSF       0.061700
     36 H7           7.3420     2.0240    -4.7760 h1         1 VSF       0.052950
     37 H8           7.7910     1.1870    -3.2800 h1         1 VSF       0.052950
     38 H9           7.7850    -1.2390    -3.2680 h1         1 VSF       0.052950
     39 H10          7.3310    -2.0890    -4.7550 h1         1 VSF       0.052950
     40 H11          5.5130    -2.1520    -3.0550 hc         1 VSF       0.061700
     41 H12          5.0170    -1.2940    -4.5250 hc         1 VSF       0.061700
     42 H13          2.9950    -0.0010    -4.3980 h4         1 VSF       0.178000
     43 H14          0.7580     1.6280    -4.5380 ha         1 VSF       0.144500
     44 H15         -1.5160     1.6190    -5.4820 ha         1 VSF       0.147000
     45 H16         -2.5740    -1.6510    -2.9300 ha         1 VSF       0.147000
     46 H17         -0.3010    -1.6540    -1.9830 ha         1 VSF       0.144500
     47 H18         -3.1900     0.9080    -2.3460 ha         1 VSF       0.142500
     48 H19         -5.0600     1.5640    -0.8800 ha         1 VSF       0.133000
     49 H20         -7.3830     1.3680    -1.6810 ha         1 VSF       0.131000
     50 H21         -7.8410     0.5230    -3.9490 ha         1 VSF       0.133000
     51 H22         -5.9770    -0.1320    -5.4230 ha         1 VSF       0.142500
@<TRIPOS>BOND
     1    10    11 1
     2    10     9 1
     3     4     5 ar
     4     4     3 ar
     5     5     6 ar
     6    11    12 1
     7     3     2 ar
     8    12    13 1
     9     6     8 1
    10     6     7 ar
    11     9     8 1
    12     9    14 1
    13     2     7 ar
    14     2     1 1
    15     8    15 1
    16     7    16 1
    17    22    21 ar
    18    22    17 ar
    19    15    16 2
    20    16    17 1
    21    13    14 1
    22    21    20 ar
    23    17    18 ar
    24    20    23 1
    25    20    19 ar
    26    18    19 ar
    27    23    24 1
    28    24    25 ar
    29    24    29 ar
    30    25    26 ar
    31    29    28 ar
    32    26    27 ar
    33    28    27 ar
    34     1    30 1
    35     1    31 1
    36     4    32 1
    37     9    33 1
    38    10    34 1
    39    10    35 1
    40    11    36 1
    41    11    37 1
    42    13    38 1
    43    13    39 1
    44    14    40 1
    45    14    41 1
    46    15    42 1
    47    18    43 1
    48    19    44 1
    49    21    45 1
    50    22    46 1
    51    25    47 1
    52    26    48 1
    53    27    49 1
    54    28    50 1
    55    29    51 1
@<TRIPOS>SUBSTRUCTURE
     1 VSF         1 TEMP              0 ****  ****    0 ROOT
