@<TRIPOS>MOLECULE
VSF
   51    55     1     0     0
SMALL
bcc


@<TRIPOS>ATOM
      1 NAK          0.0000     0.0000     0.0000 nv         1 VSF      -0.546500
      2 C6           1.3830     0.0000     0.0000 ca         1 VSF       0.591200
      3 N1           2.0650     0.0000     1.1420 nb         1 VSF      -0.731000
      4 C2           3.3860    -0.0050     1.1460 ca         1 VSF       0.682900
      5 N3           4.0990    -0.0090     0.0410 nb         1 VSF      -0.683000
      6 C4           3.5060    -0.0090    -1.1530 ca         1 VSF       0.301800
      7 C5           2.1010    -0.0040    -1.2040 ca         1 VSF      -0.385400
      8 NAG          3.9620    -0.0120    -2.4430 na         1 VSF       0.324900
      9 CAQ          5.3750    -0.0180    -2.8320 c3         1 VSF      -0.073000
     10 CAV          5.6790     1.2250    -3.6750 c3         1 VSF      -0.082400
     11 CAU          7.1360     1.1700    -4.1420 c3         1 VSF       0.219900
     12 OAT          7.3530    -0.0330    -4.8810 os         1 VSF      -0.407600
     13 CAS          7.1290    -1.2280    -4.1300 c3         1 VSF       0.219900
     14 CAR          5.6720    -1.2690    -3.6630 c3         1 VSF      -0.082400
     15 CAH          2.9090    -0.0090    -3.3190 cc         1 VSF      -0.256100
     16 CAI          1.7430    -0.0090    -2.6280 cd         1 VSF      -0.054400
     17 CAJ          0.3750    -0.0110    -3.1980 ca         1 VSF      -0.014800
     18 CAL          0.0280     0.9090    -4.1850 ca         1 VSF      -0.088500
     19 CAM         -1.2460     0.9040    -4.7140 ca         1 VSF      -0.122500
     20 CAN         -2.1830    -0.0160    -4.2630 ca         1 VSF       0.104100
     21 CAO         -1.8410    -0.9330    -3.2790 ca         1 VSF      -0.122500
     22 CAP         -0.5670    -0.9380    -2.7510 ca         1 VSF      -0.088500
     23 OBD         -3.4370    -0.0180    -4.7860 os         1 VSF      -0.218200
     24 CBE         -4.4660     0.3440    -3.9760 ca         1 VSF       0.143100
     25 CBJ         -4.2100     0.8230    -2.6990 ca         1 VSF      -0.171000
     26 CBI         -5.2590     1.1900    -1.8780 ca         1 VSF      -0.060500
     27 CBH         -6.5620     1.0820    -2.3270 ca         1 VSF      -0.140000
     28 CBG         -6.8190     0.6050    -3.5990 ca         1 VSF      -0.060500
     29 CBF         -5.7740     0.2420    -4.4260 ca         1 VSF      -0.171000
     30 H1          -0.5000     0.5230    -0.6920 hn         1 VSF       0.278800
     31 H2          -0.5000    -0.4680     0.7300 hn         1 VSF       0.278800
     32 H3           3.9040    -0.0050     2.0970 h5         1 VSF      -0.005900
     33 H4           6.0000    -0.0150    -1.9470 h1         1 VSF       0.068700
     34 H5           5.0240     1.2460    -4.5370 hc         1 VSF       0.033200
     35 H6           5.5250     2.1140    -3.0760 hc         1 VSF       0.033200
     36 H7           7.3420     2.0240    -4.7760 h1         1 VSF       0.011950
     37 H8           7.7910     1.1870    -3.2800 h1         1 VSF       0.011950
     38 H9           7.7850    -1.2390    -3.2680 h1         1 VSF       0.011950
     39 H10          7.3310    -2.0890    -4.7550 h1         1 VSF       0.011950
     40 H11          5.5130    -2.1520    -3.0550 hc         1 VSF       0.033200
     41 H12          5.0170    -1.2940    -4.5250 hc         1 VSF       0.033200
     42 H13          2.9950    -0.0010    -4.3980 h4         1 VSF       0.153000
     43 H14          0.7580     1.6280    -4.5380 ha         1 VSF       0.115000
     44 H15         -1.5160     1.6190    -5.4820 ha         1 VSF       0.119000
     45 H16         -2.5740    -1.6510    -2.9300 ha         1 VSF       0.119000
     46 H17         -0.3010    -1.6540    -1.9830 ha         1 VSF       0.115000
     47 H18         -3.1900     0.9080    -2.3460 ha         1 VSF       0.119500
     48 H19         -5.0600     1.5640    -0.8800 ha         1 VSF       0.101500
     49 H20         -7.3830     1.3680    -1.6810 ha         1 VSF       0.105000
     50 H21         -7.8410     0.5230    -3.9490 ha         1 VSF       0.101500
     51 H22         -5.9770    -0.1320    -5.4230 ha         1 VSF       0.119500
@<TRIPOS>BOND
     1     1     2 1   
     2     1    30 1   
     3     1    31 1   
     4     2     3 ar  
     5     2     7 ar  
     6     3     4 ar  
     7     4     5 ar  
     8     4    32 1   
     9     5     6 ar  
    10     6     7 ar  
    11     6     8 1   
    12     7    16 1   
    13     8     9 1   
    14     8    15 1   
    15     9    10 1   
    16     9    14 1   
    17     9    33 1   
    18    10    11 1   
    19    10    34 1   
    20    10    35 1   
    21    11    12 1   
    22    11    36 1   
    23    11    37 1   
    24    12    13 1   
    25    13    14 1   
    26    13    38 1   
    27    13    39 1   
    28    14    40 1   
    29    14    41 1   
    30    15    16 2   
    31    15    42 1   
    32    16    17 1   
    33    17    18 ar  
    34    17    22 ar  
    35    18    19 ar  
    36    18    43 1   
    37    19    20 ar  
    38    19    44 1   
    39    20    21 ar  
    40    20    23 1   
    41    21    22 ar  
    42    21    45 1   
    43    22    46 1   
    44    23    24 1   
    45    24    25 ar  
    46    24    29 ar  
    47    25    26 ar  
    48    25    47 1   
    49    26    27 ar  
    50    26    48 1   
    51    27    28 ar  
    52    27    49 1   
    53    28    29 ar  
    54    28    50 1   
    55    29    51 1   
@<TRIPOS>SUBSTRUCTURE
     1 VSF         1 TEMP              0 ****  ****    0 ROOT
