@<TRIPOS>MOLECULE
VSG
   55    59     1     0     0
SMALL
bcc


@<TRIPOS>ATOM
      1 CAR          0.0000     0.0000     0.0000 c3         1 VSG      -0.039400
      2 CAS          1.5310     0.0000     0.0000 c3         1 VSG       0.160800
      3 NAT          2.0220     0.0000     1.3840 n3         1 VSG      -0.547600
      4 CAW          3.4840    -0.1390     1.4230 c3         1 VSG       0.189100
      5 CAU          1.5880     1.2060     2.1010 c3         1 VSG       0.160800
      6 CAV          0.0600     1.2420     2.1640 c3         1 VSG      -0.039400
      7 CAQ         -0.5050     1.2410     0.7410 c3         1 VSG      -0.079000
      8 NAG         -1.9680     1.2160     0.7950 na         1 VSG       0.326900
      9 CAH         -2.7140     0.2310     1.3860 cc         1 VSG      -0.255100
     10 C4          -2.7870     2.1790     0.2690 ca         1 VSG       0.301800
     11 N3          -2.5750     3.3190    -0.3890 nb         1 VSG      -0.684000
     12 C2          -3.5850     4.0630    -0.7860 ca         1 VSG       0.682900
     13 N1          -4.8440     3.7340    -0.5630 nb         1 VSG      -0.733000
     14 C6          -5.1560     2.6150     0.0860 ca         1 VSG       0.591200
     15 NAK         -6.4760     2.2750     0.3170 nv         1 VSG      -0.545500
     16 C5          -4.1130     1.7900     0.5280 ca         1 VSG      -0.386400
     17 CAI         -4.0310     0.5180     1.2570 cd         1 VSG      -0.058400
     18 CAJ         -5.1690    -0.2920     1.7560 ca         1 VSG      -0.012800
     19 CAP         -6.1830     0.3110     2.5000 ca         1 VSG      -0.089500
     20 CAO         -7.2390    -0.4450     2.9630 ca         1 VSG      -0.122000
     21 CAL         -5.2290    -1.6570     1.4780 ca         1 VSG      -0.089500
     22 CAM         -6.2880    -2.4080     1.9450 ca         1 VSG      -0.122000
     23 CAN         -7.2930    -1.8060     2.6900 ca         1 VSG       0.102100
     24 OAX         -8.3360    -2.5490     3.1480 os         1 VSG      -0.219200
     25 CAY         -8.0810    -3.4820     4.1020 ca         1 VSG       0.142100
     26 CAZ         -6.8200    -3.5700     4.6710 ca         1 VSG      -0.170500
     27 CBA         -6.5650    -4.5200     5.6410 ca         1 VSG      -0.061000
     28 CBB         -7.5670    -5.3830     6.0450 ca         1 VSG      -0.141000
     29 CBC         -8.8250    -5.2980     5.4790 ca         1 VSG      -0.061000
     30 CBD         -9.0870    -4.3460     4.5140 ca         1 VSG      -0.170500
     31 H1          -0.3610     0.0180    -1.0210 hc         1 VSG       0.030200
     32 H2          -0.3600    -0.8900     0.5010 hc         1 VSG       0.030200
     33 H3           1.8900     0.8870    -0.5080 h1         1 VSG       0.012700
     34 H4           1.8910    -0.8860    -0.5100 h1         1 VSG       0.012700
     35 H6           3.7730    -1.0540     0.9200 h1         1 VSG       0.002033
     36 H7           3.8160    -0.1740     2.4540 h1         1 VSG       0.002033
     37 H8           3.9410     0.7070     0.9250 h1         1 VSG       0.002033
     38 H9           1.9470     2.0830     1.5770 h1         1 VSG       0.012700
     39 H10          1.9900     1.1900     3.1070 h1         1 VSG       0.012700
     40 H11         -0.2580     2.1400     2.6780 hc         1 VSG       0.030200
     41 H12         -0.2990     0.3680     2.6950 hc         1 VSG       0.030200
     42 H13         -0.1720     2.1310     0.2210 h1         1 VSG       0.067700
     43 H14         -2.3110    -0.6430     1.8830 h4         1 VSG       0.153000
     44 H15         -3.3750     4.9820    -1.3180 h5         1 VSG      -0.006900
     45 H16         -6.7580     1.3150     0.2870 hn         1 VSG       0.280300
     46 H17         -7.1600     2.9920     0.4580 hn         1 VSG       0.280300
     47 H18         -6.1410     1.3720     2.7130 ha         1 VSG       0.115000
     48 H19         -8.0260     0.0220     3.5420 ha         1 VSG       0.118500
     49 H20         -4.4450    -2.1280     0.8980 ha         1 VSG       0.115000
     50 H21         -6.3340    -3.4690     1.7320 ha         1 VSG       0.118500
     51 H22         -6.0340    -2.8940     4.3550 ha         1 VSG       0.121500
     52 H23         -5.5800    -4.5890     6.0860 ha         1 VSG       0.102000
     53 H24         -7.3640    -6.1290     6.8040 ha         1 VSG       0.105000
     54 H25         -9.6090    -5.9740     5.7990 ha         1 VSG       0.102000
     55 H26        -10.0730    -4.2800     4.0700 ha         1 VSG       0.121500
@<TRIPOS>BOND
     1     1     2 1   
     2     1     7 1   
     3     1    31 1   
     4     1    32 1   
     5     2     3 1   
     6     2    33 1   
     7     2    34 1   
     8     3     4 1   
     9     3     5 1   
    10     4    35 1   
    11     4    36 1   
    12     4    37 1   
    13     5     6 1   
    14     5    38 1   
    15     5    39 1   
    16     6     7 1   
    17     6    40 1   
    18     6    41 1   
    19     7     8 1   
    20     7    42 1   
    21     8     9 1   
    22     8    10 1   
    23     9    17 2   
    24     9    43 1   
    25    10    11 ar  
    26    10    16 ar  
    27    11    12 ar  
    28    12    13 ar  
    29    12    44 1   
    30    13    14 ar  
    31    14    15 1   
    32    14    16 ar  
    33    15    45 1   
    34    15    46 1   
    35    16    17 1   
    36    17    18 1   
    37    18    19 ar  
    38    18    21 ar  
    39    19    20 ar  
    40    19    47 1   
    41    20    23 ar  
    42    20    48 1   
    43    21    22 ar  
    44    21    49 1   
    45    22    23 ar  
    46    22    50 1   
    47    23    24 1   
    48    24    25 1   
    49    25    26 ar  
    50    25    30 ar  
    51    26    27 ar  
    52    26    51 1   
    53    27    28 ar  
    54    27    52 1   
    55    28    29 ar  
    56    28    53 1   
    57    29    30 ar  
    58    29    54 1   
    59    30    55 1   
@<TRIPOS>SUBSTRUCTURE
     1 VSG         1 TEMP              0 ****  ****    0 ROOT
