@<TRIPOS>MOLECULE
molecule
   55    59     1     0     0
SMALL
bcc


@<TRIPOS>ATOM
      1 CAR          0.0000     0.0000     0.0000 c3         1 VSG      -0.093400
      2 CAS          1.5310     0.0000     0.0000 c3         1 VSG       0.164800
      3 NAT          2.0220     0.0000     1.3840 n3         1 VSG      -0.735600
      4 CAW          3.4840    -0.1390     1.4230 c3         1 VSG       0.153100
      5 CAU          1.5880     1.2060     2.1010 c3         1 VSG       0.164800
      6 CAV          0.0600     1.2420     2.1640 c3         1 VSG      -0.093400
      7 CAQ         -0.5050     1.2410     0.7410 c3         1 VSG       0.052000
      8 NAG         -1.9680     1.2160     0.7950 na         1 VSG      -0.154100
      9 CAH         -2.7140     0.2310     1.3860 cc         1 VSG      -0.087100
     10 C4          -2.7870     2.1790     0.2690 ca         1 VSG       0.514800
     11 N3          -2.5750     3.3190    -0.3890 nb         1 VSG      -0.798000
     12 C2          -3.5850     4.0630    -0.7860 ca         1 VSG       0.732900
     13 N1          -4.8440     3.7340    -0.5630 nb         1 VSG      -0.827000
     14 C6          -5.1560     2.6150     0.0860 ca         1 VSG       0.770200
     15 NAK         -6.4760     2.2750     0.3170 nv         1 VSG      -1.016500
     16 C5          -4.1130     1.7900     0.5280 ca         1 VSG      -0.382400
     17 CAI         -4.0310     0.5180     1.2570 cd         1 VSG      -0.083400
     18 CAJ         -5.1690    -0.2920     1.7560 ca         1 VSG      -0.022800
     19 CAP         -6.1830     0.3110     2.5000 ca         1 VSG      -0.113500
     20 CAO         -7.2390    -0.4450     2.9630 ca         1 VSG      -0.144500
     21 CAL         -5.2290    -1.6570     1.4780 ca         1 VSG      -0.113500
     22 CAM         -6.2880    -2.4080     1.9450 ca         1 VSG      -0.144500
     23 CAN         -7.2930    -1.8060     2.6900 ca         1 VSG       0.099100
     24 OAX         -8.3360    -2.5490     3.1480 os         1 VSG      -0.248200
     25 CAY         -8.0810    -3.4820     4.1020 ca         1 VSG       0.135100
     26 CAZ         -6.8200    -3.5700     4.6710 ca         1 VSG      -0.181000
     27 CBA         -6.5650    -4.5200     5.6410 ca         1 VSG      -0.094500
     28 CBB         -7.5670    -5.3830     6.0450 ca         1 VSG      -0.162000
     29 CBC         -8.8250    -5.2980     5.4790 ca         1 VSG      -0.094500
     30 CBD         -9.0870    -4.3460     4.5140 ca         1 VSG      -0.181000
     31 H1          -0.3610     0.0180    -1.0210 hc         1 VSG       0.059450
     32 H2          -0.3600    -0.8900     0.5010 hc         1 VSG       0.059450
     33 H3           1.8900     0.8870    -0.5080 h1         1 VSG       0.039450
     34 H4           1.8910    -0.8860    -0.5100 h1         1 VSG       0.039450
     35 H6           3.7730    -1.0540     0.9200 h1         1 VSG       0.034033
     36 H7           3.8160    -0.1740     2.4540 h1         1 VSG       0.034033
     37 H8           3.9410     0.7070     0.9250 h1         1 VSG       0.034033
     38 H9           1.9470     2.0830     1.5770 h1         1 VSG       0.039450
     39 H10          1.9900     1.1900     3.1070 h1         1 VSG       0.039450
     40 H11         -0.2580     2.1400     2.6780 hc         1 VSG       0.059450
     41 H12         -0.2990     0.3680     2.6950 hc         1 VSG       0.059450
     42 H13         -0.1720     2.1310     0.2210 h1         1 VSG       0.091700
     43 H14         -2.3110    -0.6430     1.8830 h4         1 VSG       0.178000
     44 H15         -3.3750     4.9820    -1.3180 h5         1 VSG       0.058100
     45 H16         -6.7580     1.3150     0.2870 hn         1 VSG       0.445800
     46 H17         -7.1600     2.9920     0.4580 hn         1 VSG       0.445800
     47 H18         -6.1410     1.3720     2.7130 ha         1 VSG       0.145000
     48 H19         -8.0260     0.0220     3.5420 ha         1 VSG       0.146500
     49 H20         -4.4450    -2.1280     0.8980 ha         1 VSG       0.145000
     50 H21         -6.3340    -3.4690     1.7320 ha         1 VSG       0.146500
     51 H22         -6.0340    -2.8940     4.3550 ha         1 VSG       0.144000
     52 H23         -5.5800    -4.5890     6.0860 ha         1 VSG       0.132500
     53 H24         -7.3640    -6.1290     6.8040 ha         1 VSG       0.131000
     54 H25         -9.6090    -5.9740     5.7990 ha         1 VSG       0.132500
     55 H26        -10.0730    -4.2800     4.0700 ha         1 VSG       0.144000
@<TRIPOS>BOND
     1     1     2 1
     2     1     7 1
     3    12    11 ar
     4    12    13 ar
     5     2     3 1
     6     4     3 1
     7    11    10 ar
     8    13    14 ar
     9    10     8 1
    10    10    16 ar
    11     7     8 1
    12     7     6 1
    13     3     5 1
    14    14    16 ar
    15    14    15 1
    16     8     9 1
    17    16    17 1
    18    19    20 ar
    19    19    18 ar
    20     9    17 2
    21    17    18 1
    22    20    23 ar
    23    18    21 ar
    24     5     6 1
    25    23    24 1
    26    23    22 ar
    27    24    25 1
    28    21    22 ar
    29    25    26 ar
    30    25    30 ar
    31    26    27 ar
    32    30    29 ar
    33    27    28 ar
    34    29    28 ar
    35     1    31 1
    36     1    32 1
    37     2    33 1
    38     2    34 1
    39     4    35 1
    40     4    36 1
    41     4    37 1
    42     5    38 1
    43     5    39 1
    44     6    40 1
    45     6    41 1
    46     7    42 1
    47     9    43 1
    48    12    44 1
    49    15    45 1
    50    15    46 1
    51    19    47 1
    52    20    48 1
    53    21    49 1
    54    22    50 1
    55    26    51 1
    56    27    52 1
    57    28    53 1
    58    29    54 1
    59    30    55 1
@<TRIPOS>SUBSTRUCTURE
     1 VSG         1 TEMP              0 ****  ****    0 ROOT
