@<TRIPOS>MOLECULE
molecule
   55    57     1     0     0
SMALL
bcc


@<TRIPOS>ATOM
      1 O27          0.0000     0.0000     0.0000 o          1 VSH      -0.611000
      2 C12          1.2150     0.0000     0.0000 c          1 VSH       0.756100
      3 O29          1.8880     0.0000     1.1660 os         1 VSH      -0.433900
      4 C20          1.0980     0.0000     2.3840 c3         1 VSH       0.177800
      5 C17          0.2150    -1.2490     2.4180 c3         1 VSH      -0.105433
      6 C16          2.0300     0.0010     3.5970 c3         1 VSH      -0.105433
      7 C15          0.2150     1.2490     2.4190 c3         1 VSH      -0.105433
      8 N26          1.8890    -0.0050    -1.1670 ns         1 VSH      -0.453100
      9 C7           1.1930    -0.1260    -2.3770 ca         1 VSH       0.053600
     10 C2          -0.0740     0.4260    -2.5060 ca         1 VSH      -0.104000
     11 C8           1.7760    -0.7960    -3.4520 ca         1 VSH       0.101100
     12 O28          3.0190    -1.3320    -3.3250 os         1 VSH      -0.335900
     13 C18          3.5550    -2.0040    -4.4680 c3         1 VSH       0.130700
     14 C3           1.0900    -0.9150    -4.6460 ca         1 VSH      -0.195000
     15 C6          -0.1850    -0.3650    -4.7720 ca         1 VSH      -0.082900
     16 C1          -0.7620     0.3080    -3.6960 ca         1 VSH      -0.119000
     17 C9          -0.9240    -0.4910    -6.0510 cc         1 VSH       0.444500
     18 N23         -1.5420     0.4740    -6.6900 nd         1 VSH      -0.491100
     19 N24         -2.1230    -0.0250    -7.8600 na         1 VSH      -0.023800
     20 C19         -2.8930     0.7630    -8.8270 c3         1 VSH       0.086000
     21 C14         -4.1110     1.3760    -8.1310 c3         1 VSH      -0.107100
     22 C13         -2.0130     1.8800    -9.3900 c3         1 VSH      -0.107100
     23 C10         -1.8630    -1.3590    -7.9620 ca         1 VSH       0.532800
     24 N21         -2.1690    -2.3060    -8.8500 nb         1 VSH      -0.806000
     25 C5          -1.0960    -1.7130    -6.8360 ca         1 VSH      -0.533500
     26 C11         -0.6830    -3.0480    -6.6980 ca         1 VSH       0.790200
     27 N25          0.0690    -3.4480    -5.6100 nv         1 VSH      -1.014500
     28 N22         -1.0360    -3.9180    -7.6400 nb         1 VSH      -0.839000
     29 C4          -1.7670    -3.5450    -8.6740 ca         1 VSH       0.753900
     30 H1          -0.0930    -1.4460     3.4380 hc         1 VSH       0.050589
     31 H2          -0.6610    -1.0900     1.8010 hc         1 VSH       0.050589
     32 H3           0.7730    -2.0970     2.0400 hc         1 VSH       0.050589
     33 H4           1.4420    -0.0680     4.5040 hc         1 VSH       0.050589
     34 H5           2.7020    -0.8470     3.5370 hc         1 VSH       0.050589
     35 H6           2.6060     0.9180     3.6090 hc         1 VSH       0.050589
     36 H7           0.6990     2.0490     1.8710 hc         1 VSH       0.050589
     37 H8           0.0640     1.5560     3.4470 hc         1 VSH       0.050589
     38 H9          -0.7420     1.0280     1.9630 hc         1 VSH       0.050589
     39 H10          2.8860     0.0850    -1.1700 hn         1 VSH       0.343500
     40 H11         -0.5230     0.9500    -1.6710 ha         1 VSH       0.182000
     41 H12          2.9670    -2.8900    -4.6740 h1         1 VSH       0.043700
     42 H13          4.5810    -2.2900    -4.2700 h1         1 VSH       0.043700
     43 H14          3.5230    -1.3420    -5.3240 h1         1 VSH       0.043700
     44 H15          1.5410    -1.4370    -5.4820 ha         1 VSH       0.154000
     45 H16         -1.7520     0.7380    -3.7940 ha         1 VSH       0.150000
     46 H17         -3.2230     0.1210    -9.6340 h1         1 VSH       0.086700
     47 H18         -4.7210     0.5860    -7.7090 hc         1 VSH       0.048367
     48 H19         -4.6940     1.9370    -8.8510 hc         1 VSH       0.048367
     49 H20         -3.7800     2.0380    -7.3400 hc         1 VSH       0.048367
     50 H21         -2.5390     2.3850   -10.1920 hc         1 VSH       0.048367
     51 H22         -1.7850     2.5910    -8.6040 hc         1 VSH       0.048367
     52 H23         -1.0920     1.4570    -9.7720 hc         1 VSH       0.048367
     53 H24          0.7230    -4.2000    -5.7040 hn         1 VSH       0.447300
     54 H25         -0.0830    -3.0270    -4.7150 hn         1 VSH       0.447300
     55 H26         -2.0310    -4.2870    -9.4180 h5         1 VSH       0.060100
@<TRIPOS>BOND
     1     7     4 1
     2     6     4 1
     3     4     5 1
     4     4     3 1
     5     1     2 2
     6     3     2 1
     7     2     8 1
     8    10    16 ar
     9    10     9 ar
    10    16    15 ar
    11     8     9 1
    12     9    11 ar
    13    21    20 1
    14    15    17 1
    15    15    14 ar
    16    11    14 ar
    17    11    12 1
    18    17    18 2
    19    17    25 1
    20    18    19 1
    21    27    26 1
    22    25    26 ar
    23    25    23 ar
    24    26    28 ar
    25    19    23 1
    26    19    20 1
    27    12    13 1
    28    23    24 ar
    29    20    22 1
    30    28    29 ar
    31    24    29 ar
    32     5    30 1
    33     5    31 1
    34     5    32 1
    35     6    33 1
    36     6    34 1
    37     6    35 1
    38     7    36 1
    39     7    37 1
    40     7    38 1
    41     8    39 1
    42    10    40 1
    43    13    41 1
    44    13    42 1
    45    13    43 1
    46    14    44 1
    47    16    45 1
    48    20    46 1
    49    21    47 1
    50    21    48 1
    51    21    49 1
    52    22    50 1
    53    22    51 1
    54    22    52 1
    55    27    53 1
    56    27    54 1
    57    29    55 1
@<TRIPOS>SUBSTRUCTURE
     1 VSH         1 TEMP              0 ****  ****    0 ROOT
