@<TRIPOS>MOLECULE
molecule
   49    51     1     0     0
SMALL
bcc


@<TRIPOS>ATOM
      1 CBB          0.0000     0.0000     0.0000 c3         1 VSI      -0.166100
      2 CBA          1.5060     0.0000     0.0000 c          1 VSI       0.654100
      3 OBC          2.1130     0.0000     1.0500 o          1 VSI      -0.576100
      4 NAZ          2.1800     0.0010    -1.1670 ns         1 VSI      -0.485100
      5 CAU          3.5750     0.1180    -1.1710 ca         1 VSI       0.074600
      6 CAV          4.3480    -0.7340    -0.3920 ca         1 VSI       0.023400
      7 ClX          3.5840    -1.9420     0.5930 cl         1 VSI      -0.082900
      8 CAW          5.7250    -0.6180    -0.4030 ca         1 VSI      -0.092000
      9 CAT          4.1900     1.0840    -1.9580 ca         1 VSI       0.023400
     10 ClY          3.2300     2.1470    -2.9390 cl         1 VSI      -0.082900
     11 CAS          5.5690     1.1970    -1.9590 ca         1 VSI      -0.092000
     12 CAR          6.3350     0.3450    -1.1860 ca         1 VSI      -0.106300
     13 CAQ          7.8360     0.4670    -1.1950 c3         1 VSI       0.300100
     14 NAO          8.3920    -0.3890    -2.2450 nu         1 VSI      -0.888200
     15 CAN          9.7510    -0.4420    -2.4420 c2         1 VSI       0.705800
     16 NAP         10.5510     0.1840    -1.6290 n2         1 VSI      -0.940100
     17 NAL         10.2670    -1.1590    -3.5050 ns         1 VSI      -0.528400
     18 C            9.4490    -1.8950    -4.2820 c          1 VSI       0.639100
     19 O            8.2490    -1.8510    -4.1110 o          1 VSI      -0.567100
     20 CA          10.0240    -2.7700    -5.3660 c3         1 VSI      -0.023700
     21 N            8.9380    -3.4610    -6.0650 na         1 VSI      -0.059400
     22 CAD          8.2110    -2.9360    -7.1130 ca         1 VSI      -0.038200
     23 CAC          8.2510    -1.7250    -7.7870 ca         1 VSI      -0.095000
     24 CAB          7.3590    -1.4890    -8.8330 ca         1 VSI      -0.003000
     25 CBD          7.3970    -0.2390    -9.5320 cg         1 VSI       0.243800
     26 NBE          7.4180     0.7600   -10.0700 n1         1 VSI      -0.368800
     27 CAA          6.4270    -2.4690    -9.2040 ca         1 VSI      -0.120000
     28 CAF          6.3830    -3.6620    -8.5470 ca         1 VSI      -0.082000
     29 CAE          7.2700    -3.9130    -7.4950 ca         1 VSI      -0.079800
     30 CAI          7.4870    -5.0520    -6.6030 cd         1 VSI      -0.193200
     31 CAH          8.4970    -4.7210    -5.7790 cc         1 VSI      -0.081100
     32 H1          -0.3610     0.9740    -0.3060 hc         1 VSI       0.063367
     33 H2          -0.3610    -0.2220     0.9970 hc         1 VSI       0.063367
     34 H3          -0.3610    -0.7520    -0.6910 hc         1 VSI       0.063367
     35 H4           1.6800    -0.0340    -2.0340 hn         1 VSI       0.333500
     36 H5           6.3300    -1.2810     0.2040 ha         1 VSI       0.154500
     37 H6           6.0500     1.9500    -2.5730 ha         1 VSI       0.154500
     38 H7           8.2240     0.2280    -0.2120 h1         1 VSI       0.059700
     39 H8           8.1140     1.4810    -1.4550 h1         1 VSI       0.059700
     40 H9           7.7890    -0.9900    -2.7720 hn         1 VSI       0.491800
     41 H10         11.5410     0.1460    -1.7720 hn         1 VSI       0.399400
     42 H11         11.2390    -1.0860    -3.7320 hn         1 VSI       0.334500
     43 H12         10.6990    -2.1870    -5.9800 h1         1 VSI       0.082700
     44 H13         10.5650    -3.5930    -4.9160 h1         1 VSI       0.082700
     45 H14          8.9870    -0.9780    -7.5160 ha         1 VSI       0.133000
     46 H15          5.7370    -2.2800   -10.0170 ha         1 VSI       0.142000
     47 H16          5.6600    -4.4140    -8.8380 ha         1 VSI       0.139000
     48 H17          6.9360    -5.9850    -6.6150 ha         1 VSI       0.162000
     49 H18          8.9080    -5.3840    -5.0270 h4         1 VSI       0.170000
@<TRIPOS>BOND
     1    16    15 2
     2    14    15 1
     3    14    13 1
     4    15    17 1
     5    13    12 1
     6     8    12 ar
     7     8     6 ar
     8    19    18 2
     9     7     6 1
    10    17    18 1
    11    12    11 ar
    12     6     5 ar
    13    18    20 1
    14    11     9 ar
    15     5     9 ar
    16     5     4 1
    17    20    21 1
    18    31    21 1
    19    31    30 2
    20    21    22 1
    21     9    10 1
    22     3     2 2
    23     4     2 1
    24     2     1 1
    25    30    29 1
    26    22    23 ar
    27    22    29 ar
    28    23    24 ar
    29    29    28 ar
    30    24    27 ar
    31    24    25 1
    32    28    27 ar
    33    25    26 3
    34     1    32 1
    35     1    33 1
    36     1    34 1
    37     4    35 1
    38     8    36 1
    39    11    37 1
    40    13    38 1
    41    13    39 1
    42    14    40 1
    43    16    41 1
    44    17    42 1
    45    20    43 1
    46    20    44 1
    47    23    45 1
    48    27    46 1
    49    28    47 1
    50    30    48 1
    51    31    49 1
@<TRIPOS>SUBSTRUCTURE
     1 VSI         1 TEMP              0 ****  ****    0 ROOT
