@<TRIPOS>MOLECULE
VSI
   49    51     1     0     0
SMALL
bcc


@<TRIPOS>ATOM
      1 CBB          0.0000     0.0000     0.0000 c3         1 VSI      -0.067100
      2 CBA          1.5060     0.0000     0.0000 c          1 VSI       0.550100
      3 OBC          2.1130     0.0000     1.0500 o          1 VSI      -0.628100
      4 NAZ          2.1800     0.0010    -1.1670 ns         1 VSI      -0.072100
      5 CAU          3.5750     0.1180    -1.1710 ca         1 VSI      -0.056400
      6 CAV          4.3480    -0.7340    -0.3920 ca         1 VSI      -0.020100
      7 ClX          3.5840    -1.9420     0.5930 cl         1 VSI       0.014600
      8 CAW          5.7250    -0.6180    -0.4030 ca         1 VSI      -0.078500
      9 CAT          4.1900     1.0840    -1.9580 ca         1 VSI      -0.020100
     10 ClY          3.2300     2.1470    -2.9390 cl         1 VSI       0.014600
     11 CAS          5.5690     1.1970    -1.9590 ca         1 VSI      -0.078500
     12 CAR          6.3350     0.3450    -1.1860 ca         1 VSI      -0.090300
     13 CAQ          7.8360     0.4670    -1.1950 c3         1 VSI       0.170100
     14 NAO          8.3920    -0.3890    -2.2450 nu         1 VSI      -0.546200
     15 CAN          9.7510    -0.4420    -2.4420 c2         1 VSI       0.410800
     16 NAP         10.5510     0.1840    -1.6290 n2         1 VSI      -0.833100
     17 NAL         10.2670    -1.1590    -3.5050 ns         1 VSI      -0.050400
     18 C            9.4490    -1.8950    -4.2820 c          1 VSI       0.607100
     19 O            8.2490    -1.8510    -4.1110 o          1 VSI      -0.618100
     20 CA          10.0240    -2.7700    -5.3660 c3         1 VSI      -0.140700
     21 N            8.9380    -3.4610    -6.0650 na         1 VSI       0.347600
     22 CAD          8.2110    -2.9360    -7.1130 ca         1 VSI      -0.192200
     23 CAC          8.2510    -1.7250    -7.7870 ca         1 VSI      -0.075000
     24 CAB          7.3590    -1.4890    -8.8330 ca         1 VSI       0.031000
     25 CBD          7.3970    -0.2390    -9.5320 cg         1 VSI       0.236800
     26 NBE          7.4440     0.7560   -10.0770 n1         1 VSI      -0.392800
     27 CAA          6.4270    -2.4690    -9.2040 ca         1 VSI      -0.120000
     28 CAF          6.3830    -3.6620    -8.5470 ca         1 VSI      -0.048000
     29 CAE          7.2700    -3.9130    -7.4950 ca         1 VSI      -0.042800
     30 CAI          7.4870    -5.0520    -6.6030 cc         1 VSI      -0.142200
     31 CAH          8.4970    -4.7210    -5.7790 cd         1 VSI      -0.243100
     32 H1          -0.4550     0.8570     0.4820 hc         1 VSI       0.023700
     33 H2          -0.4040    -0.1960    -0.9860 hc         1 VSI       0.023700
     34 H3          -0.3530    -0.8000     0.6390 hc         1 VSI       0.023700
     35 H4           1.5500    -0.3890    -1.8410 hn         1 VSI       0.183500
     36 H5           6.4290    -1.0000     0.3270 ha         1 VSI       0.125500
     37 H6           6.0750     1.9490    -2.5530 ha         1 VSI       0.125500
     38 H7           8.3070     1.4400    -1.2730 h1         1 VSI       0.012700
     39 H8           8.3000     0.1790    -0.2590 h1         1 VSI       0.012700
     40 H9           7.5370    -0.8950    -2.3660 hn         1 VSI       0.362800
     41 H10         10.1050     0.6030    -0.8360 hn         1 VSI       0.341400
     42 H11         11.2020    -0.8130    -3.5940 hn         1 VSI       0.210500
     43 H12         10.2770    -2.3440    -6.3290 h1         1 VSI       0.060700
     44 H13         10.7950    -3.5230    -5.2600 h1         1 VSI       0.060700
     45 H14          8.8490    -0.8610    -7.5250 ha         1 VSI       0.111000
     46 H15          5.7220    -2.2910   -10.0070 ha         1 VSI       0.113000
     47 H16          5.4510    -4.1590    -8.7870 ha         1 VSI       0.111000
     48 H17          7.1260    -6.0540    -6.4060 ha         1 VSI       0.135000
     49 H18          9.1840    -5.1970    -5.0900 h4         1 VSI       0.133000
@<TRIPOS>BOND
     1     1     2 1   
     2     1    32 1   
     3     1    33 1   
     4     1    34 1   
     5     2     3 2   
     6     2     4 1   
     7     4     5 1   
     8     4    35 1   
     9     5     6 ar  
    10     5     9 ar  
    11     6     7 1   
    12     6     8 ar  
    13     8    12 ar  
    14     8    36 1   
    15     9    10 1   
    16     9    11 ar  
    17    11    12 ar  
    18    11    37 1   
    19    12    13 1   
    20    13    14 1   
    21    13    38 1   
    22    13    39 1   
    23    14    15 1   
    24    14    40 1   
    25    15    16 2   
    26    15    17 1   
    27    16    41 1   
    28    17    18 1   
    29    17    42 1   
    30    18    19 2   
    31    18    20 1   
    32    20    21 1   
    33    20    43 1   
    34    20    44 1   
    35    21    22 1   
    36    21    31 1   
    37    22    23 ar  
    38    22    29 ar  
    39    23    24 ar  
    40    23    45 1   
    41    24    25 1   
    42    24    27 ar  
    43    25    26 3   
    44    27    28 ar  
    45    27    46 1   
    46    28    29 ar  
    47    28    47 1   
    48    29    30 1   
    49    30    31 2   
    50    30    48 1   
    51    31    49 1   
@<TRIPOS>SUBSTRUCTURE
     1 VSI         1 TEMP              0 ****  ****    0 ROOT
