@<TRIPOS>MOLECULE
molecule
   54    56     1     0     0
SMALL
bcc


@<TRIPOS>ATOM
      1 C1           0.0000     0.0000     0.0000 ca         1 VSK      -0.137000
      2 C10          1.9580     1.4360    -3.0220 c3         1 VSK       0.025500
      3 C11          1.8330     1.4490    -4.5240 c          1 VSK       0.632100
      4 C12          2.8170     1.3990    -6.7520 c3         1 VSK       0.107000
      5 C13          4.2100     1.3190    -7.3810 c3         1 VSK      -0.048100
      6 C14          4.0840     1.3320    -8.8830 ca         1 VSK      -0.110300
      7 C15          3.9520     0.1420    -9.5750 ca         1 VSK      -0.066800
      8 C16          3.8360     0.1530   -10.9520 ca         1 VSK      -0.125000
      9 C17          3.8550     1.3540   -11.6370 ca         1 VSK      -0.059300
     10 C18          3.9870     2.5430   -10.9450 ca         1 VSK      -0.125000
     11 C19          4.0960     2.5320    -9.5680 ca         1 VSK      -0.066800
     12 C2           1.3960     0.0000     0.0000 ca         1 VSK      -0.128800
     13 C20          4.2350     3.8290    -8.8120 c3         1 VSK      -0.049300
     14 C21          3.7300     1.3670   -13.1390 c3         1 VSK      -0.051800
     15 C22          3.9320    -1.1670    -8.8280 c3         1 VSK      -0.049300
     16 C3           2.0980     0.0000     1.2200 ca         1 VSK      -0.030200
     17 C4           1.3860    -0.0000     2.4150 ca         1 VSK      -0.115000
     18 C5           0.0090    -0.0020     2.3920 ca         1 VSK      -0.095000
     19 C6          -0.6790     0.0060     1.1850 ca         1 VSK      -0.118000
     20 C7           3.6100     0.0000    -0.4420 cc         1 VSK      -0.041100
     21 C8           2.4150     0.0000    -1.0520 cd         1 VSK      -0.254400
     22 C9           2.1660    -0.0000    -2.5390 c3         1 VSK      -0.006200
     23 N1           3.4410     0.0010     0.9160 na         1 VSK      -0.160400
     24 N2           0.7310     1.9810    -2.4240 nz         1 VSK      -0.789600
     25 N3           2.9390     1.3870    -5.2930 ns         1 VSK      -0.547900
     26 O1           0.7380     1.5140    -5.0400 o          1 VSK      -0.594100
     27 H1          -0.5430     0.0060    -0.9370 ha         1 VSK       0.104000
     28 H2           2.8050     2.0430    -2.7250 hx         1 VSK       0.114700
     29 H3           2.2270     0.5480    -7.0720 h1         1 VSK       0.073200
     30 H4           2.3310     2.3140    -7.0660 h1         1 VSK       0.073200
     31 H5           4.6960     0.4030    -7.0670 hc         1 VSK       0.054700
     32 H6           4.7990     2.1690    -7.0600 hc         1 VSK       0.054700
     33 H7           3.7330    -0.7790   -11.4940 ha         1 VSK       0.140000
     34 H8           3.9990     3.4830   -11.4830 ha         1 VSK       0.140000
     35 H9           3.3420     4.0020    -8.2240 hc         1 VSK       0.043367
     36 H10          4.3680     4.6430    -9.5140 hc         1 VSK       0.043367
     37 H11          5.0950     3.7740    -8.1560 hc         1 VSK       0.043367
     38 H12          4.4400     0.6700   -13.5670 hc         1 VSK       0.050367
     39 H13          2.7250     1.0760   -13.4210 hc         1 VSK       0.050367
     40 H14          3.9340     2.3640   -13.5100 hc         1 VSK       0.050367
     41 H15          3.0190    -1.2390    -8.2490 hc         1 VSK       0.043367
     42 H16          4.7860    -1.2160    -8.1620 hc         1 VSK       0.043367
     43 H17          3.9780    -1.9870    -9.5340 hc         1 VSK       0.043367
     44 H18          1.9130    -0.0060     3.3620 ha         1 VSK       0.148000
     45 H19         -0.5430     0.0030     3.3240 ha         1 VSK       0.155000
     46 H20         -1.7630     0.0040     1.1840 ha         1 VSK       0.147000
     47 H21          4.5670    -0.0010    -0.9490 h4         1 VSK       0.177000
     48 H22          3.0200    -0.4320    -3.0480 hc         1 VSK       0.090200
     49 H23          1.2820    -0.5860    -2.7570 hc         1 VSK       0.090200
     50 H24          4.1820     0.0010     1.5880 hn         1 VSK       0.319700
     51 H25         -0.0080     1.3120    -2.5110 hn         1 VSK       0.462800
     52 H26          0.8910     2.1770    -1.4550 hn         1 VSK       0.462800
     53 H28          3.8440     1.3710    -4.8670 hn         1 VSK       0.323500
     54 H231         0.5150     2.8610    -2.8490 hn         1 VSK       0.462800
@<TRIPOS>BOND
     1    15     7 1
     2     7     8 ar
     3     7     6 ar
     4     8     9 ar
     5     5     6 1
     6     5     4 1
     7     6    11 ar
     8     9    14 1
     9     9    10 ar
    10    11    10 ar
    11    11    13 1
    12    25     4 1
    13    25     3 1
    14     2    24 1
    15     2     3 1
    16     2    22 1
    17     3    26 2
    18    19     1 ar
    19    19    18 ar
    20     1    12 ar
    21    18    17 ar
    22    12    21 1
    23    12    16 ar
    24    22    21 1
    25    17    16 ar
    26    21    20 2
    27    16    23 1
    28    20    23 1
    29     1    27 1
    30     2    28 1
    31     4    29 1
    32     4    30 1
    33     5    31 1
    34     5    32 1
    35     8    33 1
    36    10    34 1
    37    13    35 1
    38    13    36 1
    39    13    37 1
    40    14    38 1
    41    14    39 1
    42    14    40 1
    43    15    41 1
    44    15    42 1
    45    15    43 1
    46    17    44 1
    47    18    45 1
    48    19    46 1
    49    20    47 1
    50    22    48 1
    51    22    49 1
    52    23    50 1
    53    24    51 1
    54    24    52 1
    55    25    53 1
    56    54    24 1
@<TRIPOS>SUBSTRUCTURE
     1 VSK         1 TEMP              0 ****  ****    0 ROOT
