@<TRIPOS>MOLECULE
VSK
   54    56     1     0     0
SMALL
bcc


@<TRIPOS>ATOM
      1 C1           0.0000     0.0000     0.0000 ca         1 VSK      -0.114000
      2 C10          1.9580     1.4360    -3.0220 c3         1 VSK      -0.156500
      3 C11          1.8330     1.4490    -4.5240 c          1 VSK       0.541100
      4 C12          2.8170     1.3990    -6.7520 c3         1 VSK       0.031000
      5 C13          4.2100     1.3190    -7.3810 c3         1 VSK       0.013900
      6 C14          4.0840     1.3320    -8.8830 ca         1 VSK      -0.118300
      7 C15          3.9520     0.1420    -9.5750 ca         1 VSK      -0.071800
      8 C16          3.8360     0.1530   -10.9520 ca         1 VSK      -0.099000
      9 C17          3.8550     1.3540   -11.6370 ca         1 VSK      -0.064300
     10 C18          3.9870     2.5430   -10.9450 ca         1 VSK      -0.099000
     11 C19          4.0960     2.5320    -9.5680 ca         1 VSK      -0.071800
     12 C2           1.3960     0.0000     0.0000 ca         1 VSK      -0.117800
     13 C20          4.2350     3.8290    -8.8120 c3         1 VSK       0.058700
     14 C21          3.7300     1.3670   -13.1390 c3         1 VSK       0.060200
     15 C22          3.9320    -1.1670    -8.8280 c3         1 VSK       0.058700
     16 C3           2.0980     0.0000     1.2200 ca         1 VSK      -0.221200
     17 C4           1.3860    -0.0000     2.4150 ca         1 VSK      -0.066000
     18 C5           0.0090    -0.0020     2.3920 ca         1 VSK      -0.071000
     19 C6          -0.6790     0.0060     1.1850 ca         1 VSK      -0.079000
     20 C7           3.6100     0.0000    -0.4420 cc         1 VSK      -0.204100
     21 C8           2.4150     0.0000    -1.0520 cd         1 VSK      -0.273400
     22 C9           2.1660    -0.0000    -2.5390 c3         1 VSK       0.088800
     23 N1           3.4410     0.0010     0.9160 na         1 VSK       0.394600
     24 N2           0.7310     1.9810    -2.4240 nz         1 VSK       0.084400
     25 N3           2.9390     1.3870    -5.2930 ns         1 VSK      -0.117900
     26 O1           0.7380     1.5140    -5.0400 o          1 VSK      -0.643100
     27 H1          -0.5430     0.0060    -0.9370 ha         1 VSK       0.083000
     28 H2           2.8050     2.0430    -2.7250 hx         1 VSK       0.088700
     29 H3           2.2270     0.5480    -7.0720 h1         1 VSK       0.046700
     30 H4           2.3310     2.3140    -7.0660 h1         1 VSK       0.046700
     31 H5           4.6960     0.4030    -7.0670 hc         1 VSK       0.027700
     32 H6           4.7990     2.1690    -7.0600 hc         1 VSK       0.027700
     33 H7           3.7330    -0.7790   -11.4940 ha         1 VSK       0.116500
     34 H8           3.9990     3.4830   -11.4830 ha         1 VSK       0.116500
     35 H9           3.3420     4.0020    -8.2240 hc         1 VSK       0.008533
     36 H10          4.3680     4.6430    -9.5140 hc         1 VSK       0.008533
     37 H11          5.0950     3.7740    -8.1560 hc         1 VSK       0.008533
     38 H12          4.4400     0.6700   -13.5670 hc         1 VSK       0.013033
     39 H13          2.7250     1.0760   -13.4210 hc         1 VSK       0.013033
     40 H14          3.9340     2.3640   -13.5100 hc         1 VSK       0.013033
     41 H15          3.0190    -1.2390    -8.2490 hc         1 VSK       0.008533
     42 H16          4.7860    -1.2160    -8.1620 hc         1 VSK       0.008533
     43 H17          3.9780    -1.9870    -9.5340 hc         1 VSK       0.008533
     44 H18          1.9130    -0.0060     3.3620 ha         1 VSK       0.116000
     45 H19         -0.5430     0.0030     3.3240 ha         1 VSK       0.121000
     46 H20         -1.7630     0.0040     1.1840 ha         1 VSK       0.116000
     47 H21          4.5670    -0.0010    -0.9490 h4         1 VSK       0.148000
     48 H22          3.0200    -0.4320    -3.0480 hc         1 VSK       0.050200
     49 H23          1.2820    -0.5860    -2.7570 hc         1 VSK       0.050200
     50 H24          4.1820     0.0010     1.5880 hn         1 VSK       0.131700
     51 H25         -0.0080     1.3120    -2.5110 hn         1 VSK       0.233133
     52 H26          0.8910     2.1770    -1.4550 hn         1 VSK       0.233133
     53 H28          3.8440     1.3710    -4.8670 hn         1 VSK       0.178500
     54 H231         0.5150     2.8610    -2.8490 hn         1 VSK       0.233133
@<TRIPOS>BOND
     1     1    12 ar  
     2     1    19 ar  
     3     1    27 1   
     4     2     3 1   
     5     2    22 1   
     6     2    24 1   
     7     2    28 1   
     8     3    25 1   
     9     3    26 2   
    10     4     5 1   
    11     4    25 1   
    12     4    29 1   
    13     4    30 1   
    14     5     6 1   
    15     5    31 1   
    16     5    32 1   
    17     6     7 ar  
    18     6    11 ar  
    19     7     8 ar  
    20     7    15 1   
    21     8     9 ar  
    22     8    33 1   
    23     9    10 ar  
    24     9    14 1   
    25    10    11 ar  
    26    10    34 1   
    27    11    13 1   
    28    12    16 ar  
    29    12    21 1   
    30    13    35 1   
    31    13    36 1   
    32    13    37 1   
    33    14    38 1   
    34    14    39 1   
    35    14    40 1   
    36    15    41 1   
    37    15    42 1   
    38    15    43 1   
    39    16    17 ar  
    40    16    23 1   
    41    17    18 ar  
    42    17    44 1   
    43    18    19 ar  
    44    18    45 1   
    45    19    46 1   
    46    20    21 2   
    47    20    23 1   
    48    20    47 1   
    49    21    22 1   
    50    22    48 1   
    51    22    49 1   
    52    23    50 1   
    53    24    51 1   
    54    24    52 1   
    55    24    54 1   
    56    25    53 1   
@<TRIPOS>SUBSTRUCTURE
     1 VSK         1 TEMP              0 ****  ****    0 ROOT
