@<TRIPOS>MOLECULE
VSO
    9     8     1     0     0
SMALL
bcc


@<TRIPOS>ATOM
      1 O1          0.0150    0.0240    0.1330 o         1 VSO     -0.751533
      2 S2          1.4270    0.0080   -0.0050 s6        1 VSO      1.449700
      3 C3          2.0270   -0.0370    1.6350 c2        1 VSO     -0.357100
      4 C4          2.7890   -0.9850    2.1580 c2        1 VSO     -0.136000
      5 O8          1.9230   -1.1620   -0.6350 o         1 VSO     -0.751533
      6 O9          1.9500    1.2100   -0.5440 o         1 VSO     -0.751533
      7 H3          1.7170    0.8230    2.2470 h4        1 VSO      0.125000
      8 H41         3.1140   -1.8560    1.5670 ha        1 VSO      0.087000
      9 H42         3.1470   -0.9750    3.1970 ha        1 VSO      0.087000
@<TRIPOS>BOND
     1    1    2 1   
     2    2    3 1   
     3    2    5 1   
     4    2    6 1   
     5    3    4 2   
     6    3    7 1   
     7    4    8 1   
     8    4    9 1   
@<TRIPOS>SUBSTRUCTURE
     1 VSO         1 TEMP              0 ****  ****    0 ROOT
