@<TRIPOS>MOLECULE
molecule
    9     8     1     0     0
SMALL
bcc


@<TRIPOS>ATOM
      1 O1           0.0000     0.0000     0.0000 o          1 VSO      -0.717867
      2 S2           1.5210     0.0000     0.0000 s6         1 VSO       1.319700
      3 C3           2.0480     0.0000     1.6800 c2         1 VSO      -0.339100
      4 C4           2.7840    -0.9830     2.1360 c2         1 VSO      -0.152000
      5 O8           1.9070    -1.2630    -0.5250 o          1 VSO      -0.717867
      6 O9           1.9070     1.2610    -0.5250 o          1 VSO      -0.717867
      7 H3           1.7640     0.8130     2.3370 h4         1 VSO       0.132000
      8 H41          3.1090    -0.9820     3.1700 ha         1 VSO       0.097000
      9 H42          3.0690    -1.7960     1.4800 ha         1 VSO       0.097000
@<TRIPOS>BOND
     1     1     2 1
     2     2     3 1
     3     2     5 1
     4     2     6 1
     5     3     4 2
     6     3     7 1
     7     4     8 1
     8     4     9 1
@<TRIPOS>SUBSTRUCTURE
     1 VSO         1 TEMP              0 ****  ****    0 ROOT
