@<TRIPOS>MOLECULE
VSP
   48    50     1     0     0
SMALL
bcc


@<TRIPOS>ATOM
      1 C10          0.0000     0.0000     0.0000 cc         1 VSP       0.427900
      2 C13         -2.3320    -2.0330    -1.0800 ca         1 VSP      -0.174000
      3 C17         -6.1040    -4.1510    -2.5980 c3         1 VSP       0.031400
      4 C21         -1.8080    -4.0300    -2.3120 ca         1 VSP      -0.159000
      5 C22         -0.6890    -3.4110    -2.8330 ca         1 VSP      -0.047000
      6 O20         -3.9250    -5.7500    -2.8550 o          1 VSP      -0.539300
      7 N01          2.0560     0.0020    -2.3390 nv         1 VSP      -0.547500
      8 C11         -0.8810     0.0000    -1.2220 c3         1 VSP       0.006600
      9 C02          2.4010     0.0020    -1.0010 ca         1 VSP       0.615200
     10 C12         -1.2110    -1.4200    -1.6040 ca         1 VSP      -0.037300
     11 C03          1.4120     0.0000     0.0000 ca         1 VSP      -0.550500
     12 C23         -0.3900    -2.1080    -2.4790 ca         1 VSP      -0.146000
     13 N24          3.1290     0.0010     1.6180 nb         1 VSP      -0.689000
     14 C04          1.8250     0.0000     1.3460 ca         1 VSP       0.330800
     15 C14         -2.6340    -3.3420    -1.4330 ca         1 VSP       0.046600
     16 N05          0.6900    -0.0010     2.1010 na         1 VSP       0.393200
     17 N15         -3.7760    -3.9430    -0.8960 nu         1 VSP      -0.294500
     18 C25          4.0160     0.0020     0.6480 ca         1 VSP       0.709900
     19 N26          3.6770     0.0020    -0.6290 nb         1 VSP      -0.744000
     20 C06          0.7950    -0.0310     3.5500 c3         1 VSP      -0.038000
     21 S16         -4.6990    -5.0210    -1.8470 s6         1 VSP       0.744900
     22 C07          0.3430     1.3140     4.1220 c3         1 VSP      -0.011600
     23 C08         -0.0960    -1.1450     4.1020 c3         1 VSP      -0.011600
     24 C18         -7.0990    -5.1700    -3.1490 c3         1 VSP       0.041900
     25 N09         -0.4120     0.0050     1.2360 nd         1 VSP      -0.623100
     26 O19         -5.1460    -6.1730    -1.0620 o          1 VSP      -0.539300
     27 H13         -2.5810    -1.9020    -0.0340 ha         1 VSP       0.131000
     28 H17         -5.7490    -3.5200    -3.4050 h1         1 VSP       0.057200
     29 H17A        -6.5920    -3.5380    -1.8500 h1         1 VSP       0.057200
     30 H21         -2.0410    -5.0510    -2.5890 ha         1 VSP       0.173000
     31 H22         -0.0430    -3.9460    -3.5190 ha         1 VSP       0.108000
     32 HN01         1.2350     0.4870    -2.6430 hn         1 VSP       0.283300
     33 HN0A         2.6530    -0.4400    -3.0100 hn         1 VSP       0.283300
     34 H11         -1.5440     0.8570    -1.1890 hc         1 VSP       0.035700
     35 H11A        -0.2660     0.0540    -2.1120 hc         1 VSP       0.035700
     36 H23          0.4880    -1.6230    -2.8880 ha         1 VSP       0.110000
     37 HN15        -4.2980    -3.4770    -0.1810 hn         1 VSP       0.319800
     38 H25          5.0740     0.0030     0.8830 h5         1 VSP      -0.004900
     39 H06          1.8230    -0.2170     3.8340 h1         1 VSP       0.066700
     40 H07          0.8980     2.1140     3.6470 hc         1 VSP       0.014867
     41 H07A         0.5260     1.3330     5.1900 hc         1 VSP       0.014867
     42 H07B        -0.7160     1.4490     3.9360 hc         1 VSP       0.014867
     43 H08          0.1140    -2.0700     3.5780 hc         1 VSP       0.014867
     44 H08A         0.1030    -1.2770     5.1590 hc         1 VSP       0.014867
     45 H08B        -1.1370    -0.8790     3.9620 hc         1 VSP       0.014867
     46 H18         -6.5900    -5.8390    -3.8320 hc         1 VSP       0.019367
     47 H18A        -7.5200    -5.7410    -2.3310 hc         1 VSP       0.019367
     48 H18B        -7.8930    -4.6530    -3.6740 hc         1 VSP       0.019367
@<TRIPOS>BOND
     1     1     8 1   
     2     1    11 1   
     3     1    25 2   
     4     2    10 ar  
     5     2    15 ar  
     6     2    27 1   
     7     3    21 1   
     8     3    24 1   
     9     3    28 1   
    10     3    29 1   
    11     4     5 ar  
    12     4    15 ar  
    13     4    30 1   
    14     5    12 ar  
    15     5    31 1   
    16     6    21 2   
    17     7     9 1   
    18     7    32 1   
    19     7    33 1   
    20     8    10 1   
    21     8    34 1   
    22     8    35 1   
    23     9    11 ar  
    24     9    19 ar  
    25    10    12 ar  
    26    11    14 ar  
    27    12    36 1   
    28    13    14 ar  
    29    13    18 ar  
    30    14    16 1   
    31    15    17 1   
    32    16    20 1   
    33    16    25 1   
    34    17    21 1   
    35    17    37 1   
    36    18    19 ar  
    37    18    38 1   
    38    20    22 1   
    39    20    23 1   
    40    20    39 1   
    41    21    26 2   
    42    22    40 1   
    43    22    41 1   
    44    22    42 1   
    45    23    43 1   
    46    23    44 1   
    47    23    45 1   
    48    24    46 1   
    49    24    47 1   
    50    24    48 1   
@<TRIPOS>SUBSTRUCTURE
     1 VSP         1 TEMP              0 ****  ****    0 ROOT
