@<TRIPOS>MOLECULE
molecule
   53    55     1     0     0
SMALL
bcc


@<TRIPOS>ATOM
      1 OE1          0.0000     0.0000     0.0000 o          1 VSV      -0.872300
      2 CD           1.3420     0.0000     0.0000 c          1 VSV       0.890600
      3 OE2          1.9460     0.0000     1.0470 o          1 VSV      -0.872300
      4 CG           2.0960     0.0020    -1.3050 c3         1 VSV      -0.187400
      5 CB           3.6000     0.0020    -1.0250 c3         1 VSV      -0.059400
      6 C            5.8420    -0.1200    -2.0780 c          1 VSV       0.892600
      7 O            6.5990     0.7490    -2.4420 o          1 VSV      -0.857300
      8 OXT          6.3180    -1.1950    -1.4300 o          1 VSV      -0.857300
      9 N            4.1030     1.2550    -3.0640 ns         1 VSV      -0.508900
     10 CAU          4.2230     1.3040    -4.4050 c          1 VSV       0.656700
     11 OBC          4.5490     0.3090    -5.0230 o          1 VSV      -0.632100
     12 CAT          3.9590     2.5680    -5.1260 ca         1 VSV      -0.101600
     13 CAQ          4.0840     2.6220    -6.5150 ca         1 VSV      -0.064000
     14 CAS          3.5790     3.7110    -4.4200 ca         1 VSV      -0.086000
     15 CAR          3.3340     4.8860    -5.0990 ca         1 VSV      -0.148000
     16 CAP          3.4640     4.9350    -6.4750 ca         1 VSV      -0.123000
     17 CAO          3.8350     3.8040    -7.1820 ca         1 VSV      -0.155300
     18 CAN          3.9690     3.8650    -8.6810 c3         1 VSV       0.282100
     19 NAY          2.6830     3.5300    -9.3000 nu         1 VSV      -0.791600
     20 CAA          2.5600     3.5200   -10.6860 ca         1 VSV       0.243600
     21 CAC          1.3370     3.2020   -11.2710 ca         1 VSV      -0.222000
     22 CAE          1.2100     3.1910   -12.6370 ca         1 VSV      -0.043500
     23 CAB          3.6580     3.8340   -11.4830 ca         1 VSV      -0.222000
     24 CAG          3.5410     3.8250   -12.8490 ca         1 VSV      -0.043500
     25 CAF          2.3140     3.5000   -13.4430 ca         1 VSV      -0.198800
     26 CAH          2.1840     3.4900   -14.9050 ce         1 VSV       0.087800
     27 CAI          3.2880     3.3610   -15.6840 cd         1 VSV      -0.162600
     28 SBG          4.9510     3.0100   -15.1710 ss         1 VSV      -0.181200
     29 CAL          5.6150     3.0430   -16.8150 c          1 VSV       0.712100
     30 NAX          4.5950     3.3050   -17.6400 ns         1 VSV      -0.580500
     31 CA           4.3650     0.0030    -2.3500 c3         1 VSV      -0.004300
     32 CAK          3.3820     3.4740   -17.1430 c          1 VSV       0.711700
     33 OBE          2.4140     3.7080   -17.8440 o          1 VSV      -0.613500
     34 OBH          6.7750     2.8610   -17.1310 o          1 VSV      -0.565500
     35 HG1C         1.8340    -0.8820    -1.8740 hc         1 VSV       0.020700
     36 HG2C         1.8340     0.8870    -1.8720 hc         1 VSV       0.020700
     37 HB1C         3.8620     0.8860    -0.4570 hc         1 VSV       0.061700
     38 HB2C         3.8620    -0.8830    -0.4580 hc         1 VSV       0.061700
     39 HA           4.0380    -0.8330    -2.9560 h1         1 VSV       0.069700
     40 HB           3.8710     2.0840    -2.5520 hn         1 VSV       0.300500
     41 HAQ          4.3740     1.7380    -7.0690 ha         1 VSV       0.159000
     42 HAS          3.4770     3.6750    -3.3420 ha         1 VSV       0.151000
     43 HAR          3.0410     5.7750    -4.5530 ha         1 VSV       0.122000
     44 HAP          3.2690     5.8610    -7.0020 ha         1 VSV       0.112000
     45 HAN1         4.7210     3.1560    -9.0050 h1         1 VSV       0.045200
     46 HAN2         4.2630     4.8640    -8.9770 h1         1 VSV       0.045200
     47 HAY          1.8950     3.3040    -8.7260 hn         1 VSV       0.454800
     48 HAC          0.4850     2.9620   -10.6470 ha         1 VSV       0.142000
     49 HAB          4.6050     4.0870   -11.0230 ha         1 VSV       0.142000
     50 HAE          0.2780     2.8780   -13.0910 ha         1 VSV       0.137000
     51 HAG          4.3740     4.1410   -13.4650 ha         1 VSV       0.137000
     52 HAH          1.2250     3.7060   -15.3610 ha         1 VSV       0.155000
     53 HAX          4.7490     3.3680   -18.6270 hn         1 VSV       0.340500
@<TRIPOS>BOND
     1     1     2 1
     2     2     3 1
     3     2     4 1
     4     4     5 1
     5     5    31 1
     6     6     7 1
     7     6     8 1
     8     6    31 1
     9     9    10 1
    10     9    31 1
    11    10    11 2
    12    10    12 1
    13    12    13 ar
    14    12    14 ar
    15    13    17 ar
    16    14    15 ar
    17    15    16 ar
    18    16    17 ar
    19    17    18 1
    20    18    19 1
    21    19    20 1
    22    20    21 ar
    23    20    23 ar
    24    21    22 ar
    25    22    25 ar
    26    23    24 ar
    27    24    25 ar
    28    25    26 1
    29    26    27 2
    30    27    28 1
    31    27    32 1
    32    28    29 1
    33    29    30 1
    34    29    34 2
    35    30    32 1
    36    32    33 2
    37     4    35 1
    38     4    36 1
    39     5    37 1
    40     5    38 1
    41    31    39 1
    42     9    40 1
    43    13    41 1
    44    14    42 1
    45    15    43 1
    46    16    44 1
    47    18    45 1
    48    18    46 1
    49    19    47 1
    50    21    48 1
    51    23    49 1
    52    22    50 1
    53    24    51 1
    54    26    52 1
    55    30    53 1
@<TRIPOS>SUBSTRUCTURE
     1 VSV         1 TEMP              0 ****  ****    0 ROOT
