@<TRIPOS>MOLECULE
VSV
   53    55     1     0     0
SMALL
bcc


@<TRIPOS>ATOM
      1 OE1          0.0000     0.0000     0.0000 o          1 VSV      -0.918800
      2 CD           1.3420     0.0000     0.0000 c          1 VSV       0.982600
      3 OE2          1.9460     0.0000     1.0470 o          1 VSV      -0.918800
      4 CG           2.0960     0.0020    -1.3050 c3         1 VSV      -0.143400
      5 CB           3.6000     0.0020    -1.0250 c3         1 VSV      -0.012400
      6 C            5.8420    -0.1200    -2.0780 c          1 VSV       0.986600
      7 O            6.5990     0.7490    -2.4420 o          1 VSV      -0.906800
      8 OXT          6.3180    -1.1950    -1.4300 o          1 VSV      -0.906800
      9 N            4.1030     1.2550    -3.0640 ns         1 VSV      -0.080900
     10 CAU          4.2230     1.3040    -4.4050 c          1 VSV       0.559700
     11 OBC          4.5490     0.3090    -5.0230 o          1 VSV      -0.681100
     12 CAT          3.9590     2.5680    -5.1260 ca         1 VSV      -0.099600
     13 CAQ          4.0840     2.6220    -6.5150 ca         1 VSV      -0.033000
     14 CAS          3.5790     3.7110    -4.4200 ca         1 VSV      -0.067000
     15 CAR          3.3340     4.8860    -5.0990 ca         1 VSV      -0.119000
     16 CAP          3.4640     4.9350    -6.4750 ca         1 VSV      -0.103000
     17 CAO          3.8350     3.8040    -7.1820 ca         1 VSV      -0.166300
     18 CAN          3.9690     3.8650    -8.6810 c3         1 VSV       0.222100
     19 NAY          2.6830     3.5300    -9.3000 nu         1 VSV      -0.375600
     20 CAA          2.5600     3.5200   -10.6860 ca         1 VSV       0.104600
     21 CAC          1.3370     3.2020   -11.2710 ca         1 VSV      -0.209500
     22 CAE          1.2100     3.1910   -12.6370 ca         1 VSV      -0.012500
     23 CAB          3.6580     3.8340   -11.4830 ca         1 VSV      -0.209500
     24 CAG          3.5410     3.8250   -12.8490 ca         1 VSV      -0.012500
     25 CAF          2.3140     3.5000   -13.4430 ca         1 VSV      -0.225800
     26 CAH          2.1840     3.4900   -14.9050 ce         1 VSV       0.170800
     27 CAI          3.2880     3.3610   -15.6840 cd         1 VSV      -0.177600
     28 SBG          4.9510     3.0100   -15.1710 ss         1 VSV      -0.266200
     29 CAL          5.6150     3.0430   -16.8150 c          1 VSV       0.661100
     30 NAX          4.5950     3.3050   -17.6400 ns         1 VSV      -0.163500
     31 CA           4.3650     0.0030    -2.3500 c3         1 VSV      -0.115300
     32 CAK          3.3820     3.4740   -17.1430 c          1 VSV       0.635700
     33 OBE          2.4140     3.7080   -17.8440 o          1 VSV      -0.650500
     34 OBH          6.7750     2.8610   -17.1310 o          1 VSV      -0.590500
     35 HG1C         1.8340     0.8870    -1.8720 hc         1 VSV      -0.001800
     36 HG2C         1.8340    -0.8820    -1.8740 hc         1 VSV      -0.001800
     37 HB1C         3.8620     0.8860    -0.4570 hc         1 VSV       0.038200
     38 HB2C         3.8620    -0.8830    -0.4580 hc         1 VSV       0.038200
     39 HA           4.0380    -0.8330    -2.9560 h1         1 VSV       0.053700
     40 HB           3.8710     2.0840    -2.5520 hn         1 VSV       0.158500
     41 HAQ          4.3740     1.7380    -7.0690 ha         1 VSV       0.131000
     42 HAS          3.4770     3.6750    -3.3420 ha         1 VSV       0.124000
     43 HAR          3.0410     5.7750    -4.5530 ha         1 VSV       0.096000
     44 HAP          3.2690     5.8610    -7.0020 ha         1 VSV       0.089000
     45 HAN1         4.2630     4.8640    -8.9770 h1         1 VSV       0.018700
     46 HAN2         4.7210     3.1560    -9.0050 h1         1 VSV       0.018700
     47 HAY          1.8950     3.3040    -8.7260 hn         1 VSV       0.305800
     48 HAC          0.4850     2.9620   -10.6470 ha         1 VSV       0.121000
     49 HAB          4.6050     4.0870   -11.0230 ha         1 VSV       0.121000
     50 HAE          0.2780     2.8780   -13.0910 ha         1 VSV       0.116000
     51 HAG          4.3740     4.1410   -13.4650 ha         1 VSV       0.116000
     52 HAH          1.2250     3.7060   -15.3610 ha         1 VSV       0.113000
     53 HAX          4.7490     3.3680   -18.6270 hn         1 VSV       0.187500
@<TRIPOS>BOND
     1     1     2 1   
     2     2     3 1   
     3     2     4 1   
     4     4     5 1   
     5     4    35 1   
     6     4    36 1   
     7     5    31 1   
     8     5    37 1   
     9     5    38 1   
    10     6     7 1   
    11     6     8 1   
    12     6    31 1   
    13     9    10 1   
    14     9    31 1   
    15     9    40 1   
    16    10    11 2   
    17    10    12 1   
    18    12    13 ar  
    19    12    14 ar  
    20    13    17 ar  
    21    13    41 1   
    22    14    15 ar  
    23    14    42 1   
    24    15    16 ar  
    25    15    43 1   
    26    16    17 ar  
    27    16    44 1   
    28    17    18 1   
    29    18    19 1   
    30    18    45 1   
    31    18    46 1   
    32    19    20 1   
    33    19    47 1   
    34    20    21 ar  
    35    20    23 ar  
    36    21    22 ar  
    37    21    48 1   
    38    22    25 ar  
    39    22    50 1   
    40    23    24 ar  
    41    23    49 1   
    42    24    25 ar  
    43    24    51 1   
    44    25    26 1   
    45    26    27 2   
    46    26    52 1   
    47    27    28 1   
    48    27    32 1   
    49    28    29 1   
    50    29    30 1   
    51    29    34 2   
    52    30    32 1   
    53    30    53 1   
    54    31    39 1   
    55    32    33 2   
@<TRIPOS>SUBSTRUCTURE
     1 VSV         1 TEMP              0 ****  ****    0 ROOT
