@<TRIPOS>MOLECULE
molecule
   34    36     1     0     0
SMALL
bcc


@<TRIPOS>ATOM
      1 OAO          0.0000     0.0000     0.0000 o          1 VT0      -0.879667
      2 PAL          1.4800     0.0000     0.0000 p5         1 VT0       1.033700
      3 OAP          2.0160     0.0000     1.5170 o          1 VT0      -0.879667
      4 OAN          2.0160    -1.3150    -0.7580 o          1 VT0      -0.879667
      5 CAK          2.0880     1.4880    -0.8600 c3         1 VT0      -0.015900
      6 PAM          1.4810     2.9760    -0.0010 p5         1 VT0       1.033700
      7 OAR          1.9750     4.1840    -0.6990 o          1 VT0      -0.879667
      8 OAS         -0.1290     2.9770    -0.0010 o          1 VT0      -0.879667
      9 OAQ          2.0180     2.9760     1.5170 o          1 VT0      -0.879667
     10 NAJ          3.5530     1.4870    -0.8600 nu         1 VT0      -0.626900
     11 C4           4.2440     0.6390    -1.7070 ca         1 VT0       0.661200
     12 N3           3.5920    -0.1750    -2.5200 nb         1 VT0      -0.633000
     13 C5           5.6650     0.6340    -1.7190 ca         1 VT0      -0.464400
     14 CAC          6.6130     1.4140    -0.9480 cc         1 VT0      -0.012200
     15 CAD          7.8810     1.1600    -1.2080 cd         1 VT0      -0.252400
     16 SAE          8.0460    -0.0770    -2.4390 ss         1 VT0      -0.433900
     17 C6           6.3030    -0.2470    -2.5980 ca         1 VT0       0.611600
     18 N1           5.5630    -1.0380    -3.3820 nb         1 VT0      -0.873000
     19 C2           4.2430    -0.9950    -3.3390 cp         1 VT0       0.691500
     20 CAT          3.4660    -1.8880    -4.2320 cp         1 VT0      -0.060500
     21 CAU          4.1260    -2.7570    -5.0990 ca         1 VT0      -0.095500
     22 CAV          3.3970    -3.5850    -5.9270 ca         1 VT0      -0.168500
     23 CAW          2.0130    -3.5550    -5.8980 ca         1 VT0      -0.209000
     24 CAX          1.3540    -2.6940    -5.0380 ca         1 VT0      -0.168500
     25 CAY          2.0720    -1.8660    -4.2010 ca         1 VT0      -0.095500
     26 H3           1.7270     1.4880    -1.8810 h1         1 VT0       0.064700
     27 H6           4.0540     2.1160    -0.2650 hn         1 VT0       0.457800
     28 H8           6.3040     2.1500    -0.2150 ha         1 VT0       0.137000
     29 H9           8.7150     1.6520    -0.7230 h4         1 VT0       0.110000
     30 H12          5.2080    -2.7820    -5.1240 ha         1 VT0       0.173500
     31 H13          3.9080    -4.2610    -6.6020 ha         1 VT0       0.086000
     32 H14          1.4450    -4.2060    -6.5510 ha         1 VT0       0.066000
     33 H15          0.2710    -2.6760    -5.0170 ha         1 VT0       0.086000
     34 H16          1.5540    -1.1930    -3.5290 ha         1 VT0       0.173500
@<TRIPOS>BOND
     1     1     2 1
     2     2     3 1
     3     2     4 1
     4     2     5 1
     5     5     6 1
     6     5    10 1
     7     6     7 1
     8     6     8 1
     9     6     9 1
    10    10    11 1
    11    11    12 ar
    12    11    13 ar
    13    12    19 ar
    14    13    14 1
    15    13    17 ar
    16    14    15 2
    17    15    16 1
    18    16    17 1
    19    17    18 ar
    20    18    19 ar
    21    19    20 1
    22    20    21 ar
    23    20    25 ar
    24    21    22 ar
    25    22    23 ar
    26    23    24 ar
    27    24    25 ar
    28     5    26 1
    29    10    27 1
    30    14    28 1
    31    15    29 1
    32    21    30 1
    33    22    31 1
    34    23    32 1
    35    24    33 1
    36    25    34 1
@<TRIPOS>SUBSTRUCTURE
     1 VT0         1 TEMP              0 ****  ****    0 ROOT
