@<TRIPOS>MOLECULE
VT0
   34    36     1     0     0
SMALL
bcc


@<TRIPOS>ATOM
      1 OAO          0.0000     0.0000     0.0000 o          1 VT0      -0.683500
      2 PAL          1.4800     0.0000     0.0000 p5         1 VT0       0.432200
      3 OAP          2.0160     0.0000     1.5170 o          1 VT0      -0.683500
      4 OAN          2.0160    -1.3150    -0.7580 o          1 VT0      -0.683500
      5 CAK          2.0880     1.4880    -0.8600 c3         1 VT0       0.325100
      6 PAM          1.4810     2.9760    -0.0010 p5         1 VT0       0.432200
      7 OAR          1.9750     4.1840    -0.6990 o          1 VT0      -0.683500
      8 OAS         -0.1290     2.9770    -0.0010 o          1 VT0      -0.683500
      9 OAQ          2.0180     2.9760     1.5170 o          1 VT0      -0.683500
     10 NAJ          3.5530     1.4870    -0.8600 nu         1 VT0      -0.076900
     11 C4           4.2440     0.6390    -1.7070 ca         1 VT0       0.320200
     12 N3           3.5920    -0.1750    -2.5200 nb         1 VT0      -0.430000
     13 C5           5.6650     0.6340    -1.7190 ca         1 VT0      -0.506400
     14 CAC          6.6130     1.4140    -0.9480 cc         1 VT0       0.023800
     15 CAD          7.8810     1.1600    -1.2080 cd         1 VT0      -0.314400
     16 SAE          8.0460    -0.0770    -2.4390 ss         1 VT0      -0.550900
     17 C6           6.3030    -0.2470    -2.5980 ca         1 VT0       0.597600
     18 N1           5.5630    -1.0380    -3.3820 nb         1 VT0      -0.735000
     19 C2           4.2430    -0.9950    -3.3390 cp         1 VT0       0.465500
     20 CAT          3.4660    -1.8880    -4.2320 cp         1 VT0      -0.043500
     21 CAU          4.1260    -2.7570    -5.0990 ca         1 VT0      -0.126000
     22 CAV          3.3970    -3.5850    -5.9270 ca         1 VT0      -0.133000
     23 CAW          2.0130    -3.5550    -5.8980 ca         1 VT0      -0.271000
     24 CAX          1.3540    -2.6940    -5.0380 ca         1 VT0      -0.133000
     25 CAY          2.0720    -1.8660    -4.2010 ca         1 VT0      -0.126000
     26 H3           1.7270     1.4880    -1.8810 h1         1 VT0       0.044700
     27 H6           4.0540     2.1160    -0.2650 hn         1 VT0       0.279800
     28 H8           6.3040     2.1500    -0.2150 ha         1 VT0       0.091000
     29 H9           8.7150     1.6520    -0.7230 h4         1 VT0       0.104000
     30 H12          5.2080    -2.7820    -5.1240 ha         1 VT0       0.138000
     31 H13          3.9080    -4.2610    -6.6020 ha         1 VT0       0.055000
     32 H14          1.4450    -4.2060    -6.5510 ha         1 VT0       0.049000
     33 H15          0.2710    -2.6760    -5.0170 ha         1 VT0       0.055000
     34 H16          1.5540    -1.1930    -3.5290 ha         1 VT0       0.138000
@<TRIPOS>BOND
     1     1     2 1   
     2     2     3 1   
     3     2     4 1   
     4     2     5 1   
     5     5     6 1   
     6     5    10 1   
     7     5    26 1   
     8     6     7 1   
     9     6     8 1   
    10     6     9 1   
    11    10    11 1   
    12    10    27 1   
    13    11    12 ar  
    14    11    13 ar  
    15    12    19 ar  
    16    13    14 1   
    17    13    17 ar  
    18    14    15 2   
    19    14    28 1   
    20    15    16 1   
    21    15    29 1   
    22    16    17 1   
    23    17    18 ar  
    24    18    19 ar  
    25    19    20 1   
    26    20    21 ar  
    27    20    25 ar  
    28    21    22 ar  
    29    21    30 1   
    30    22    23 ar  
    31    22    31 1   
    32    23    24 ar  
    33    23    32 1   
    34    24    25 ar  
    35    24    33 1   
    36    25    34 1   
@<TRIPOS>SUBSTRUCTURE
     1 VT0         1 TEMP              0 ****  ****    0 ROOT
