@<TRIPOS>MOLECULE
molecule
   53    56     1     0     0
SMALL
bcc


@<TRIPOS>ATOM
      1 FBE          0.0000     0.0000     0.0000 f          1 VT1      -0.215300
      2 CBD          1.3990     0.0000     0.0000 c3         1 VT1       0.625900
      3 FBF          1.8650     0.0000     1.3190 f          1 VT1      -0.215300
      4 FBG          1.8660    -1.1410    -0.6600 f          1 VT1      -0.215300
      5 CBC          1.9090     1.2500    -0.7210 c3         1 VT1       0.086400
      6 OBB          1.4330     2.4170    -0.0470 os         1 VT1      -0.310900
      7 CBA          1.7970     3.6200    -0.5620 ca         1 VT1       0.152100
      8 CBH          1.3690     4.7930     0.0440 ca         1 VT1      -0.182500
      9 CBI          1.7370     6.0140    -0.4780 ca         1 VT1      -0.072500
     10 CAZ          2.6040     3.6730    -1.6920 ca         1 VT1      -0.182500
     11 CAY          2.9760     4.8920    -2.2180 ca         1 VT1      -0.072500
     12 CAX          2.5420     6.0710    -1.6140 cp         1 VT1      -0.084000
     13 CAW          2.9400     7.3850    -2.1780 cp         1 VT1      -0.119300
     14 CBJ          2.5170     8.5700    -1.5800 ca         1 VT1       0.420200
     15 NBK          2.8690     9.7370    -2.0790 nb         1 VT1      -0.657000
     16 CAV          3.7500     7.4540    -3.3140 ca         1 VT1      -0.097000
     17 CAU          4.0950     8.7040    -3.8000 ca         1 VT1      -0.195300
     18 CAT          3.6290     9.8330    -3.1520 ca         1 VT1       0.333600
     19 CAQ          4.0000    11.1960    -3.6790 c3         1 VT1       0.336300
     20 FAR          5.3920    11.3370    -3.6690 f          1 VT1      -0.215800
     21 FAS          3.5280    11.3340    -4.9880 f          1 VT1      -0.215800
     22 CAB          3.3720    12.2730    -2.7930 c3         1 VT1       0.184100
     23 CAC          1.8500    12.1190    -2.8050 c3         1 VT1       0.060300
     24 NAD          1.2410    13.2200    -2.0550 na         1 VT1      -0.007400
     25 NAH          1.5060    13.5560    -0.8370 nc         1 VT1      -0.203800
     26 NAG          0.7780    14.5690    -0.5190 nd         1 VT1      -0.050000
     27 NAF          0.0400    14.8970    -1.5220 nd         1 VT1      -0.385000
     28 CAE          0.3060    14.0760    -2.5070 cc         1 VT1       0.331400
     29 OAA          3.8550    12.1310    -1.4550 oh         1 VT1      -0.540800
     30 CAI          3.7430    13.6360    -3.3190 ca         1 VT1      -0.201300
     31 CAO          3.3790    14.0040    -4.6040 ca         1 VT1       0.166900
     32 FAP          2.6920    13.1420    -5.3850 f          1 VT1      -0.128900
     33 CAN          3.7200    15.2560    -5.0860 ca         1 VT1      -0.210000
     34 CAL          4.4230    16.1380    -4.2840 ca         1 VT1       0.175900
     35 FAM          4.7570    17.3610    -4.7540 f          1 VT1      -0.128900
     36 CAK          4.7860    15.7670    -3.0010 ca         1 VT1      -0.180000
     37 CAJ          4.4410    14.5180    -2.5180 ca         1 VT1      -0.039000
     38 HBC1         1.5490     1.2510    -1.7420 h1         1 VT1       0.071700
     39 HBC2         2.9930     1.2500    -0.7200 h1         1 VT1       0.071700
     40 HBH          0.7430     4.7480     0.9270 ha         1 VT1       0.146500
     41 HAZ          2.9410     2.7560    -2.1610 ha         1 VT1       0.146500
     42 HBI          1.4000     6.9290    -0.0050 ha         1 VT1       0.140000
     43 HAY          3.6030     4.9330    -3.1000 ha         1 VT1       0.140000
     44 HBJ          1.8910     8.5320    -0.6960 h4         1 VT1       0.038100
     45 HAV          4.1010     6.5520    -3.8010 ha         1 VT1       0.149000
     46 HAU          4.7200     8.7950    -4.6800 ha         1 VT1       0.155000
     47 HAC1         1.5790    11.1760    -2.3450 h1         1 VT1       0.107700
     48 HAC2         1.4930    12.1380    -3.8270 h1         1 VT1       0.107700
     49 HAA          4.7880    11.9980    -1.4710 ho         1 VT1       0.412000
     50 HAE         -0.1440    14.0810    -3.4920 h5         1 VT1       0.076100
     51 HAJ          4.7250    14.2290    -1.5130 ha         1 VT1       0.165000
     52 HAN          3.4350    15.5450    -6.0910 ha         1 VT1       0.164000
     53 HAK          5.3350    16.4580    -2.3730 ha         1 VT1       0.158000
@<TRIPOS>BOND
     1     1     2 1
     2     2     3 1
     3     2     4 1
     4     2     5 1
     5     5     6 1
     6     6     7 1
     7     7     8 ar
     8     7    10 ar
     9     8     9 ar
    10     9    12 ar
    11    10    11 ar
    12    11    12 ar
    13    12    13 1
    14    13    14 ar
    15    13    16 ar
    16    14    15 ar
    17    15    18 ar
    18    16    17 ar
    19    17    18 ar
    20    18    19 1
    21    19    20 1
    22    19    21 1
    23    19    22 1
    24    22    23 1
    25    22    29 1
    26    22    30 1
    27    23    24 1
    28    24    25 1
    29    24    28 1
    30    25    26 2
    31    26    27 1
    32    27    28 2
    33    30    31 ar
    34    30    37 ar
    35    31    32 1
    36    31    33 ar
    37    33    34 ar
    38    34    35 1
    39    34    36 ar
    40    36    37 ar
    41     5    38 1
    42     5    39 1
    43     8    40 1
    44    10    41 1
    45     9    42 1
    46    11    43 1
    47    14    44 1
    48    16    45 1
    49    17    46 1
    50    23    47 1
    51    23    48 1
    52    29    49 1
    53    28    50 1
    54    37    51 1
    55    33    52 1
    56    36    53 1
@<TRIPOS>SUBSTRUCTURE
     1 VT1         1 TEMP              0 ****  ****    0 ROOT
