@<TRIPOS>MOLECULE
VT1
   53    56     1     0     0
SMALL
bcc


@<TRIPOS>ATOM
      1 FBE        -0.0060    0.1390    0.7140 f         1 VT1     -0.227967
      2 CBD         1.2360   -0.0000    0.1580 c3        1 VT1      0.634900
      3 FBF         2.0850   -0.2340    1.2050 f         1 VT1     -0.227967
      4 FBG         1.1870   -1.1850   -0.5340 f         1 VT1     -0.227967
      5 CBC         1.6640    1.1870   -0.7630 c3        1 VT1      0.088400
      6 OBB         1.6710    2.3320    0.0810 os        1 VT1     -0.310900
      7 CBA         2.0380    3.5210   -0.5260 ca        1 VT1      0.132100
      8 CBH         2.0490    4.6330    0.3370 ca        1 VT1     -0.172000
      9 CBI         2.4050    5.8760   -0.1690 ca        1 VT1     -0.079000
     10 CAZ         2.3770    3.6540   -1.8760 ca        1 VT1     -0.172000
     11 CAY         2.7280    4.9110   -2.3660 ca        1 VT1     -0.079000
     12 CAX         2.7480    6.0300   -1.5240 cp        1 VT1     -0.077000
     13 CAW         3.1200    7.3380   -2.0430 cp        1 VT1     -0.118300
     14 CBJ         3.9160    8.2230   -1.2730 ca        1 VT1      0.409200
     15 NBK         4.2940    9.4410   -1.6870 nb        1 VT1     -0.631000
     16 CAV         2.7130    7.7710   -3.3120 ca        1 VT1     -0.089000
     17 CAU         3.0960    9.0370   -3.7580 ca        1 VT1     -0.216300
     18 CAT         3.8830    9.8430   -2.9130 ca        1 VT1      0.330600
     19 CAQ         4.3060   11.2460   -3.3970 c3        1 VT1      0.341300
     20 FAR         5.6250   11.5230   -3.1060 f         1 VT1     -0.218800
     21 FAS         4.2990   11.3180   -4.7740 f         1 VT1     -0.218800
     22 CAB         3.3570   12.3530   -2.7400 c3        1 VT1      0.174100
     23 CAC         1.8930   12.0090   -3.1270 c3        1 VT1      0.054300
     24 NAD         0.9180   13.0120   -2.7820 na        1 VT1     -0.080400
     25 NAH         0.3700   13.2130   -1.5580 nc        1 VT1     -0.163800
     26 NAG        -0.4340   14.2010   -1.6550 nd        1 VT1     -0.054000
     27 NAF        -0.4800   14.7190   -2.8900 nd        1 VT1     -0.373000
     28 CAE         0.3760   13.9890   -3.6460 cc        1 VT1      0.380400
     29 OAA         3.4170   12.2150   -1.3340 oh        1 VT1     -0.557800
     30 CAI         3.7700   13.7360   -3.1730 ca        1 VT1     -0.179300
     31 CAO         3.6410   14.1880   -4.5060 ca        1 VT1      0.163900
     32 FAP         3.0980   13.3970   -5.4630 f         1 VT1     -0.138900
     33 CAN         4.0620   15.4760   -4.8810 ca        1 VT1     -0.208000
     34 CAL         4.6000   16.3320   -3.9090 ca        1 VT1      0.172900
     35 FAM         5.0100   17.5720   -4.2600 f         1 VT1     -0.125900
     36 CAK         4.7070   15.9060   -2.5710 ca        1 VT1     -0.176000
     37 CAJ         4.2920   14.6270   -2.2260 ca        1 VT1     -0.049000
     38 HBC1        0.9100    1.2990   -1.5840 h1        1 VT1      0.079700
     39 HBC2        2.6870    0.9810   -1.1680 h1        1 VT1      0.079700
     40 HBH         1.7750    4.5030    1.3940 ha        1 VT1      0.151500
     41 HAZ         2.3730    2.7910   -2.5550 ha        1 VT1      0.151500
     42 HBI         2.4090    6.7520    0.4980 ha        1 VT1      0.143000
     43 HAY         3.0020    5.0190   -3.4270 ha        1 VT1      0.143000
     44 HBJ         4.2750    7.9290   -0.2690 h4        1 VT1      0.037100
     45 HAV         2.0940    7.1230   -3.9500 ha        1 VT1      0.150000
     46 HAU         2.8000    9.3980   -4.7530 ha        1 VT1      0.158000
     47 HAC1        1.8560   11.8560   -4.2430 h1        1 VT1      0.094700
     48 HAC2        1.6250   11.0460   -2.6000 h1        1 VT1      0.094700
     49 HAA         4.3490   12.1250   -1.0840 ho        1 VT1      0.429000
     50 HAE         0.6270   14.0920   -4.7060 h5        1 VT1      0.087100
     51 HAJ         4.3660   14.3150   -1.1700 ha        1 VT1      0.160000
     52 HAN         3.9670   15.8050   -5.9260 ha        1 VT1      0.170000
     53 HAK         5.1140   16.5900   -1.8120 ha        1 VT1      0.162000
@<TRIPOS>BOND
     1    1    2 1   
     2    2    3 1   
     3    2    4 1   
     4    2    5 1   
     5    5    6 1   
     6    5   38 1   
     7    5   39 1   
     8    6    7 1   
     9    7    8 ar  
    10    7   10 ar  
    11    8    9 ar  
    12    8   40 1   
    13    9   12 ar  
    14    9   42 1   
    15   10   11 ar  
    16   10   41 1   
    17   11   12 ar  
    18   11   43 1   
    19   12   13 1   
    20   13   14 ar  
    21   13   16 ar  
    22   14   15 ar  
    23   14   44 1   
    24   15   18 ar  
    25   16   17 ar  
    26   16   45 1   
    27   17   18 ar  
    28   17   46 1   
    29   18   19 1   
    30   19   20 1   
    31   19   21 1   
    32   19   22 1   
    33   22   23 1   
    34   22   29 1   
    35   22   30 1   
    36   23   24 1   
    37   23   47 1   
    38   23   48 1   
    39   24   25 1   
    40   24   28 1   
    41   25   26 2   
    42   26   27 1   
    43   27   28 2   
    44   28   50 1   
    45   29   49 1   
    46   30   31 ar  
    47   30   37 ar  
    48   31   32 1   
    49   31   33 ar  
    50   33   34 ar  
    51   33   52 1   
    52   34   35 1   
    53   34   36 ar  
    54   36   37 ar  
    55   36   53 1   
    56   37   51 1   
@<TRIPOS>SUBSTRUCTURE
     1 VT1         1 TEMP              0 ****  ****    0 ROOT
