@<TRIPOS>MOLECULE
molecule
   65    69     1     0     0
SMALL
bcc


@<TRIPOS>ATOM
      1 NAA          3.0730    -6.7600   -11.6270 n1         1 VT2      -0.351800
      2 OAB          1.4290     0.0000     0.0000 oh         1 VT2      -0.542800
      3 FAC         -1.8710     4.5930    -2.6530 f          1 VT2      -0.117900
      4 FAD         -2.7410     0.5610    -0.3240 f          1 VT2      -0.130900
      5 FAE         -0.0440    -1.2490    -2.0400 f          1 VT2      -0.204800
      6 FAF         -1.9090    -1.2480    -0.7220 f          1 VT2      -0.204800
      7 CAH          1.8730    -6.9290     1.3600 ce         1 VT2      -0.170200
      8 CAJ         -0.0620     3.2680    -1.8880 ca         1 VT2      -0.202000
      9 CAK          3.7010    -7.7530    -8.3380 ca         1 VT2      -0.099000
     10 CAL          1.4820    -6.8220    -8.5350 ca         1 VT2      -0.099000
     11 CAM          2.5600    -5.7290    -0.7080 ca         1 VT2      -0.091500
     12 CAN          1.6420    -7.9590    -0.8930 ca         1 VT2      -0.091500
     13 CAO          0.1120    -4.8580     0.1600 ca         1 VT2      -0.115000
     14 CAP          3.4840    -7.9700    -6.9930 ca         1 VT2      -0.113500
     15 CAQ          1.2770    -7.0450    -7.1890 ca         1 VT2      -0.113500
     16 CAR          2.7030    -5.6800    -2.0780 ca         1 VT2      -0.189000
     17 CAS          1.7880    -7.9000    -2.2620 ca         1 VT2      -0.189000
     18 CAT         -0.3500    -3.7300    -0.4930 ca         1 VT2      -0.201300
     19 CAU          0.3970     2.1400    -1.2350 ca         1 VT2      -0.010000
     20 CAV          1.2150    -3.3880     1.7180 ca         1 VT2       0.489200
     21 CAW         -0.9460     2.1230     2.7100 cc         1 VT2       0.336400
     22 CAX         -2.3240     2.5800    -1.4900 ca         1 VT2      -0.279000
     23 CAY          2.0430    -7.8580    -4.9500 c3         1 VT2       0.113700
     24 CAZ         -0.5100     0.0000     1.4430 c3         1 VT2      -0.029700
     25 NBA         -0.1950     3.0990     3.1580 nd         1 VT2      -0.392000
     26 NBB          0.7500    -2.3460     1.0610 nb         1 VT2      -0.709000
     27 NBC          1.0250     2.8420     2.8360 nd         1 VT2      -0.035000
     28 NBD          1.0730     1.7260     2.1960 nc         1 VT2      -0.230800
     29 OBE          2.4600    -6.7100    -4.2080 os         1 VT2      -0.332900
     30 CBF         -1.4230     3.4900    -2.0160 ca         1 VT2       0.224900
     31 CBG          2.6990    -7.1760    -9.1210 ca         1 VT2       0.008000
     32 CBH          2.0260    -6.8710    -0.1040 ca         1 VT2      -0.187800
     33 CBI          0.9150    -4.6850     1.2960 ca         1 VT2      -0.180100
     34 CBJ         -1.8630     1.4500    -0.8370 ca         1 VT2       0.136900
     35 CBK          2.2740    -7.6180    -6.4200 ca         1 VT2      -0.040300
     36 CBL          2.3180    -6.7630    -2.8580 ca         1 VT2       0.151100
     37 CBM         -0.0080    -2.4800    -0.0110 ca         1 VT2       0.390600
     38 CBN         -0.5010     1.2310    -0.7100 ca         1 VT2      -0.183300
     39 NBO         -0.1220     1.2520     2.0980 na         1 VT2       0.016600
     40 CBP         -0.5100    -1.2490    -0.7210 c3         1 VT2       0.343300
     41 CBQ          0.0000     0.0000     0.0000 c3         1 VT2       0.166100
     42 HOAB         1.5800    -0.5010     0.7840 ho         1 VT2       0.428000
     43 HAH          1.4990    -6.2240     2.0930 ha         1 VT2       0.224000
     44 HAI          1.0190    -5.2650     1.2220 ha         1 VT2       0.302000
     45 HAJ          0.6490     3.9650    -2.3150 ha         1 VT2       0.161000
     46 HAK          4.5630    -8.3740    -8.5510 ha         1 VT2       0.150500
     47 HAL          0.7650    -6.3610    -9.2030 ha         1 VT2       0.150500
     48 HAM          3.0340    -5.0090    -0.0510 ha         1 VT2       0.151000
     49 HAN          1.2250    -8.6700    -0.1900 ha         1 VT2       0.151000
     50 HAO         -0.1110    -5.8220    -0.2800 ha         1 VT2       0.187000
     51 HAP          4.1960    -8.6020    -6.4780 ha         1 VT2       0.143500
     52 HAQ          0.3760    -6.6320    -6.7530 ha         1 VT2       0.143500
     53 HAR          3.0180    -4.6640    -2.2830 ha         1 VT2       0.150000
     54 HAS          1.5070    -8.5340    -3.0940 ha         1 VT2       0.150000
     55 HAT         -0.9060    -3.9630    -1.3940 ha         1 VT2       0.175000
     56 HAU          1.4610     2.1520    -1.0310 ha         1 VT2       0.176000
     57 HAV          1.8860    -3.1340     2.5290 h4         1 VT2       0.066100
     58 HAW         -2.0090     2.2410     2.8830 h5         1 VT2       0.094100
     59 HAX         -2.7970     1.6950    -1.8980 ha         1 VT2       0.212000
     60 HAY          1.4370    -8.4420    -4.2680 h1         1 VT2       0.071700
     61 HAYA         3.0560    -8.2400    -4.9200 h1         1 VT2       0.071700
     62 HAZ          0.1600    -0.8220     1.6660 h1         1 VT2       0.115200
     63 HAZA        -1.4630    -0.4320     1.7210 h1         1 VT2       0.115200
     64 CAI          1.4350    -5.8520     2.0320 cf         1 VT2      -0.364200
     65 CAG          2.9180    -6.9480   -10.5170 cg         1 VT2       0.234800
@<TRIPOS>BOND
     1     1    65 3
     2     2    41 1
     3     3    30 1
     4     4    34 1
     5     5    40 1
     6     6    40 1
     7    65    31 1
     8     7    64 2
     9     7    32 1
    10    64    33 1
    11     8    19 ar
    12     8    30 ar
    13     9    14 ar
    14     9    31 ar
    15    10    15 ar
    16    10    31 ar
    17    11    16 ar
    18    11    32 ar
    19    12    17 ar
    20    12    32 ar
    21    13    18 ar
    22    13    33 ar
    23    14    35 ar
    24    15    35 ar
    25    16    36 ar
    26    17    36 ar
    27    18    37 ar
    28    19    38 ar
    29    20    26 ar
    30    20    33 ar
    31    21    25 2
    32    21    39 1
    33    22    30 ar
    34    22    34 ar
    35    23    29 1
    36    23    35 1
    37    24    39 1
    38    24    41 1
    39    25    27 1
    40    26    37 ar
    41    27    28 2
    42    28    39 1
    43    29    36 1
    44    34    38 ar
    45    37    40 1
    46    38    41 1
    47    40    41 1
    48     2    42 1
    49     7    43 1
    50    64    44 1
    51     8    45 1
    52     9    46 1
    53    10    47 1
    54    11    48 1
    55    12    49 1
    56    13    50 1
    57    14    51 1
    58    15    52 1
    59    16    53 1
    60    17    54 1
    61    18    55 1
    62    19    56 1
    63    20    57 1
    64    21    58 1
    65    22    59 1
    66    23    60 1
    67    23    61 1
    68    24    62 1
    69    24    63 1
@<TRIPOS>SUBSTRUCTURE
     1 VT2         1 TEMP              0 ****  ****    0 ROOT
