@<TRIPOS>MOLECULE
VT2
   65    69     1     0     0
SMALL
bcc


@<TRIPOS>ATOM
      1 NAA          3.0750    -6.7770   -11.6290 n1         1 VT2      -0.372800
      2 OAB          1.4290     0.0000     0.0000 oh         1 VT2      -0.513800
      3 FAC         -1.8710     4.5930    -2.6530 f          1 VT2      -0.118900
      4 FAD         -2.7410     0.5610    -0.3240 f          1 VT2      -0.118900
      5 FAE         -0.0440    -1.2490    -2.0400 f          1 VT2      -0.205300
      6 FAF         -1.9090    -1.2480    -0.7220 f          1 VT2      -0.205300
      7 CAH          1.8730    -6.9290     1.3600 ce         1 VT2      -0.063200
      8 CAJ         -0.0620     3.2680    -1.8880 ca         1 VT2      -0.147000
      9 CAK          3.7010    -7.7530    -8.3380 ca         1 VT2      -0.066500
     10 CAL          1.4820    -6.8220    -8.5350 ca         1 VT2      -0.066500
     11 CAM          2.5600    -5.7290    -0.7080 ca         1 VT2      -0.066000
     12 CAN          1.6420    -7.9590    -0.8930 ca         1 VT2      -0.066000
     13 CAO          0.1120    -4.8580     0.1600 ca         1 VT2      -0.094000
     14 CAP          3.4840    -7.9700    -6.9930 ca         1 VT2      -0.109500
     15 CAQ          1.2770    -7.0450    -7.1890 ca         1 VT2      -0.109500
     16 CAR          2.7030    -5.6800    -2.0780 ca         1 VT2      -0.179500
     17 CAS          1.7880    -7.9000    -2.2620 ca         1 VT2      -0.179500
     18 CAT         -0.3500    -3.7300    -0.4930 ca         1 VT2      -0.174300
     19 CAU          0.3970     2.1400    -1.2350 ca         1 VT2       0.014000
     20 CAV          1.2150    -3.3880     1.7180 ca         1 VT2       0.388200
     21 CAW         -0.9460     2.1230     2.7100 cc         1 VT2       0.119400
     22 CAX         -2.3240     2.5800    -1.4900 ca         1 VT2      -0.179000
     23 CAY          2.0430    -7.8580    -4.9500 c3         1 VT2       0.249700
     24 CAZ         -0.5100     0.0000     1.4430 c3         1 VT2      -0.074700
     25 NBA         -0.1950     3.0990     3.1580 nd         1 VT2      -0.393000
     26 NBB          0.7500    -2.3460     1.0610 nb         1 VT2      -0.508000
     27 NBC          1.0250     2.8420     2.8360 nd         1 VT2      -0.040000
     28 NBD          1.0730     1.7260     2.1960 nc         1 VT2      -0.365800
     29 OBE          2.4600    -6.7100    -4.2080 os         1 VT2      -0.283900
     30 CBF         -1.4230     3.4900    -2.0160 ca         1 VT2       0.115900
     31 CBG          2.6990    -7.1760    -9.1210 ca         1 VT2       0.083000
     32 CBH          2.0260    -6.8710    -0.1040 ca         1 VT2      -0.147800
     33 CBI          0.9150    -4.6850     1.2960 ca         1 VT2      -0.112100
     34 CBJ         -1.8630     1.4500    -0.8370 ca         1 VT2       0.175900
     35 CBK          2.2740    -7.6180    -6.4200 ca         1 VT2      -0.153300
     36 CBL          2.3180    -6.7630    -2.8580 ca         1 VT2       0.166100
     37 CBM         -0.0080    -2.4800    -0.0110 ca         1 VT2       0.286600
     38 CBN         -0.5010     1.2310    -0.7100 ca         1 VT2      -0.202300
     39 NBO         -0.1220     1.2520     2.0980 na         1 VT2       0.494600
     40 CBP         -0.5100    -1.2490    -0.7210 c3         1 VT2       0.313300
     41 CBQ          0.0000     0.0000     0.0000 c3         1 VT2       0.192100
     42 HOAB         1.5880    -0.6960    -0.6160 ho         1 VT2       0.391000
     43 HAH          2.3210    -7.8460     1.7250 ha         1 VT2       0.117000
     44 HAI          1.6110    -6.2690     3.0160 ha         1 VT2       0.139000
     45 HAJ          0.6390     3.9240    -2.3900 ha         1 VT2       0.129000
     46 HAK          4.7540    -7.9610    -8.4900 ha         1 VT2       0.125000
     47 HAL          0.7040    -6.1190    -8.8070 ha         1 VT2       0.125000
     48 HAM          2.7530    -5.0520     0.1150 ha         1 VT2       0.123000
     49 HAN          1.3970    -8.9940    -0.6880 ha         1 VT2       0.123000
     50 HAO         -0.3790    -5.7920    -0.0840 ha         1 VT2       0.128000
     51 HAP          4.3090    -8.3060    -6.3780 ha         1 VT2       0.127500
     52 HAQ          0.5690    -7.1030    -6.3720 ha         1 VT2       0.127500
     53 HAR          3.1600    -4.7180    -2.2780 ha         1 VT2       0.124500
     54 HAS          1.2330    -8.5310    -2.9460 ha         1 VT2       0.124500
     55 HAT         -1.1620    -4.2070    -1.0300 ha         1 VT2       0.143000
     56 HAU          1.3690     1.8180    -1.5890 ha         1 VT2       0.132000
     57 HAV          1.6270    -3.5470     2.7070 h4         1 VT2       0.006100
     58 HAW         -1.9290     2.5030     2.9590 h5         1 VT2       0.080100
     59 HAX         -3.2070     3.0630    -1.8890 ha         1 VT2       0.155000
     60 HAY          2.6110    -8.7590    -4.7500 h1         1 VT2       0.012700
     61 HAYA         0.9800    -8.0610    -4.9040 h1         1 VT2       0.012700
     62 HAZ         -0.2600    -0.6470     2.2750 h1         1 VT2       0.085200
     63 HAZA        -1.5090    -0.0550     1.0290 h1         1 VT2       0.085200
     64 CAI          1.4350    -5.8520     2.0320 cf         1 VT2      -0.128200
     65 CAG          2.9180    -6.9480   -10.5170 cg         1 VT2       0.226800
@<TRIPOS>BOND
     1     1    65 3   
     2     2    41 1   
     3     2    42 1   
     4     3    30 1   
     5     4    34 1   
     6     5    40 1   
     7     6    40 1   
     8     7    32 1   
     9     7    43 1   
    10     7    64 2   
    11     8    19 ar  
    12     8    30 ar  
    13     8    45 1   
    14     9    14 ar  
    15     9    31 ar  
    16     9    46 1   
    17    10    15 ar  
    18    10    31 ar  
    19    10    47 1   
    20    11    16 ar  
    21    11    32 ar  
    22    11    48 1   
    23    12    17 ar  
    24    12    32 ar  
    25    12    49 1   
    26    13    18 ar  
    27    13    33 ar  
    28    13    50 1   
    29    14    35 ar  
    30    14    51 1   
    31    15    35 ar  
    32    15    52 1   
    33    16    36 ar  
    34    16    53 1   
    35    17    36 ar  
    36    17    54 1   
    37    18    37 ar  
    38    18    55 1   
    39    19    38 ar  
    40    19    56 1   
    41    20    26 ar  
    42    20    33 ar  
    43    20    57 1   
    44    21    25 2   
    45    21    39 1   
    46    21    58 1   
    47    22    30 ar  
    48    22    34 ar  
    49    22    59 1   
    50    23    29 1   
    51    23    35 1   
    52    23    60 1   
    53    23    61 1   
    54    24    39 1   
    55    24    41 1   
    56    24    62 1   
    57    24    63 1   
    58    25    27 1   
    59    26    37 ar  
    60    27    28 2   
    61    28    39 1   
    62    29    36 1   
    63    31    65 1   
    64    33    64 1   
    65    34    38 ar  
    66    37    40 1   
    67    38    41 1   
    68    40    41 1   
    69    44    64 1   
@<TRIPOS>SUBSTRUCTURE
     1 VT2         1 TEMP              0 ****  ****    0 ROOT
