@<TRIPOS>MOLECULE
VT3
   31    33     1     0     0
SMALL
bcc


@<TRIPOS>ATOM
      1 CAD          0.0000     0.0000     0.0000 ca         1 VT3      -0.064500
      2 CAC          1.3800     0.0000     0.0000 ca         1 VT3      -0.106500
      3 CAB          2.0740     0.0000     1.1970 ca         1 VT3      -0.067300
      4 CAA          3.5810     0.0010     1.1880 c3         1 VT3       0.060200
      5 CAG          1.3920    -0.0010     2.4000 ca         1 VT3      -0.106500
      6 CAF          0.0130    -0.0020     2.4140 ca         1 VT3      -0.064500
      7 CAE         -0.6940    -0.0020     1.2110 ca         1 VT3      -0.166900
      8 CAH         -2.1730    -0.0030     1.2190 cc         1 VT3       0.353500
      9 NAI         -2.8020    -0.0040     0.0730 nd         1 VT3      -0.517100
     10 CAJ         -4.1490    -0.0050     0.0050 ca         1 VT3       0.128400
     11 CAO         -4.8200    -0.0040    -1.2270 ca         1 VT3       0.133100
     12 OAP         -4.1150    -0.0040    -2.3900 oh         1 VT3      -0.479100
     13 CAN         -6.2010    -0.0050    -1.2520 ca         1 VT3      -0.122000
     14 CAM         -6.9310    -0.0060    -0.0710 ca         1 VT3      -0.106000
     15 CAL         -6.2930    -0.0060     1.1500 ca         1 VT3      -0.035000
     16 CAK         -4.9000    -0.0050     1.2000 ca         1 VT3      -0.198600
     17 CAQ         -4.1720    -0.0050     2.4770 c          1 VT3       0.619100
     18 OAR         -4.7620    -0.0060     3.5420 o          1 VT3      -0.666500
     19 NAS         -2.8190    -0.0090     2.4260 ns         1 VT3      -0.018400
     20 HAD         -0.5430    -0.0000    -0.9370 ha         1 VT3       0.117000
     21 HAC          1.9210     0.0020    -0.9390 ha         1 VT3       0.110500
     22 HAA1         3.9480    -0.2440     2.1780 hc         1 VT3       0.010033
     23 HAA2         3.9390    -0.7350     0.4790 hc         1 VT3       0.010033
     24 HAA3         3.9400     0.9820     0.9030 hc         1 VT3       0.010033
     25 HAG          1.9430    -0.0010     3.3330 ha         1 VT3       0.110500
     26 HAF         -0.5200    -0.0030     3.3570 ha         1 VT3       0.117000
     27 HAS         -2.2880    -0.0160     3.2740 hn         1 VT3       0.191500
     28 HAP         -4.2000     0.8360    -2.8090 ho         1 VT3       0.401000
     29 HAN         -6.7200    -0.0050    -2.2020 ha         1 VT3       0.113000
     30 HAM         -8.0130    -0.0070    -0.1110 ha         1 VT3       0.108000
     31 HAL         -6.8710    -0.0070     2.0660 ha         1 VT3       0.126000
@<TRIPOS>BOND
     1     1     2 ar  
     2     1     7 ar  
     3     1    20 1   
     4     2     3 ar  
     5     2    21 1   
     6     3     4 1   
     7     3     5 ar  
     8     4    22 1   
     9     4    23 1   
    10     4    24 1   
    11     5     6 ar  
    12     5    25 1   
    13     6     7 ar  
    14     6    26 1   
    15     7     8 1   
    16     8     9 2   
    17     8    19 1   
    18     9    10 1   
    19    10    11 ar  
    20    10    16 ar  
    21    11    12 1   
    22    11    13 ar  
    23    12    28 1   
    24    13    14 ar  
    25    13    29 1   
    26    14    15 ar  
    27    14    30 1   
    28    15    16 ar  
    29    15    31 1   
    30    16    17 1   
    31    17    18 2   
    32    17    19 1   
    33    19    27 1   
@<TRIPOS>SUBSTRUCTURE
     1 VT3         1 TEMP              0 ****  ****    0 ROOT
