@<TRIPOS>MOLECULE
VT4
   47    48     1     0     0
SMALL
bcc


@<TRIPOS>ATOM
      1 C1           0.0000     0.0000     0.0000 cc         1 VT4      -0.275200
      2 C2           1.3520     0.0000     0.0000 cd         1 VT4      -0.055200
      3 C4           1.4130     0.0010     2.3650 cc         1 VT4      -0.101000
      4 C5           0.0600     0.0020     2.4340 cd         1 VT4      -0.058100
      5 C6          -0.6920     0.0010     1.2310 c          1 VT4       0.586500
      6 C8          -1.2680    -1.1070     3.9960 ca         1 VT4       0.152100
      7 C9          -2.0190    -1.1120     5.1630 ca         1 VT4      -0.121300
      8 C10         -2.7330    -2.2390     5.5190 ca         1 VT4      -0.069000
      9 C11         -2.6990    -3.3630     4.7140 ca         1 VT4      -0.139000
     10 C12         -1.9510    -3.3620     3.5510 ca         1 VT4      -0.067000
     11 C13         -1.2360    -2.2370     3.1900 ca         1 VT4      -0.179000
     12 C14          2.0970    -0.0020    -1.3100 c3         1 VT4       0.015800
     13 C15          2.3970    -1.4430    -1.7250 c3         1 VT4      -0.030400
     14 C16          3.1530    -1.4440    -3.0550 c3         1 VT4      -0.028400
     15 C17          3.4540    -2.8860    -3.4700 c3         1 VT4      -0.029400
     16 C18          4.2100    -2.8870    -4.8000 c3         1 VT4      -0.028400
     17 C19          4.5100    -4.3290    -5.2140 c3         1 VT4       0.006900
     18 O17         -1.9140     0.0020     1.2600 o          1 VT4      -0.607100
     19 C80         -2.0560     0.1130     6.0400 c3         1 VT4       0.072200
     20 O7          -0.5690     0.0030     3.6400 os         1 VT4      -0.188200
     21 N            2.0450     0.0000     1.1630 na         1 VT4      -0.005200
     22 H1          -0.5470    -0.0010    -0.9350 ha         1 VT4       0.142000
     23 H141         1.4900     0.4740    -2.0710 hc         1 VT4       0.031200
     24 H142         3.0260     0.5430    -1.1970 hc         1 VT4       0.031200
     25 H4           1.9960     0.0020     3.2780 h4         1 VT4       0.141000
     26 H13         -0.6500    -2.2360     2.2790 ha         1 VT4       0.117000
     27 H10         -3.3200    -2.2430     6.4290 ha         1 VT4       0.104000
     28 H801        -2.7030    -0.0710     6.8890 hc         1 VT4       0.007033
     29 H802        -1.0560     0.3370     6.3910 hc         1 VT4       0.007033
     30 H803        -2.4360     0.9530     5.4720 hc         1 VT4       0.007033
     31 H11         -3.2590    -4.2460     4.9950 ha         1 VT4       0.102000
     32 H12         -1.9260    -4.2440     2.9220 ha         1 VT4       0.098000
     33 H151         1.4680    -1.9880    -1.8370 hc         1 VT4       0.021200
     34 H152         3.0050    -1.9180    -0.9640 hc         1 VT4       0.021200
     35 H161         4.0830    -0.8990    -2.9430 hc         1 VT4       0.016200
     36 H162         2.5450    -0.9690    -3.8160 hc         1 VT4       0.016200
     37 H171         4.0610    -3.3620    -2.7090 hc         1 VT4       0.016200
     38 H172         2.5240    -3.4310    -3.5830 hc         1 VT4       0.016200
     39 H181         5.1400    -2.3430    -4.6880 hc         1 VT4       0.012700
     40 H182         3.6030    -2.4120    -5.5610 hc         1 VT4       0.012700
     41 H191         3.5810    -4.8750    -5.3190 hc         1 VT4       0.001367
     42 H192         5.0380    -4.3300    -6.1600 hc         1 VT4       0.001367
     43 H193         5.1240    -4.8010    -4.4570 hc         1 VT4       0.001367
     44 H211         3.8610    -0.9470     0.7340 h1         1 VT4       0.027700
     45 H212         3.8540     0.8050     0.4870 h1         1 VT4       0.027700
     46 H213         3.8970     0.1430     2.1270 h1         1 VT4       0.027700
     47 C21          3.5100     0.0000     1.1250 c3         1 VT4       0.140100
@<TRIPOS>BOND
     1     1     2 2   
     2     1     5 1   
     3     1    22 1   
     4     2    12 1   
     5     2    21 1   
     6     3     4 2   
     7     3    21 1   
     8     3    25 1   
     9     4     5 1   
    10     4    20 1   
    11     5    18 2   
    12     6     7 ar  
    13     6    11 ar  
    14     6    20 1   
    15     7     8 ar  
    16     7    19 1   
    17     8     9 ar  
    18     8    27 1   
    19     9    10 ar  
    20     9    31 1   
    21    10    11 ar  
    22    10    32 1   
    23    11    26 1   
    24    12    13 1   
    25    12    23 1   
    26    12    24 1   
    27    13    14 1   
    28    13    33 1   
    29    13    34 1   
    30    14    15 1   
    31    14    35 1   
    32    14    36 1   
    33    15    16 1   
    34    15    37 1   
    35    15    38 1   
    36    16    17 1   
    37    16    39 1   
    38    16    40 1   
    39    17    41 1   
    40    17    42 1   
    41    17    43 1   
    42    19    28 1   
    43    19    29 1   
    44    19    30 1   
    45    21    47 1   
    46    44    47 1   
    47    45    47 1   
    48    46    47 1   
@<TRIPOS>SUBSTRUCTURE
     1 VT4         1 TEMP              0 ****  ****    0 ROOT
