@<TRIPOS>MOLECULE
molecule
   43    45     1     0     0
SMALL
bcc


@<TRIPOS>ATOM
      1 C            0.0000     0.0000     0.0000 c3         1 VT5      -0.191100
      2 C1           1.5070     0.0000     0.0000 c          1 VT5       0.585300
      3 O            2.1140     0.0000     1.0500 o          1 VT5      -0.501100
      4 C2           2.2140     0.0010    -1.2250 ce         1 VT5      -0.244400
      5 C3           3.5570    -0.1060    -1.3850 cf         1 VT5       0.101900
      6 C4           3.8780    -0.0620    -2.8280 c          1 VT5       0.669700
      7 O1           4.9970    -0.1350    -3.2950 o          1 VT5      -0.593500
      8 N            2.7480     0.0700    -3.5460 n          1 VT5      -0.392000
      9 C5           1.6190     0.1140    -2.6100 c3         1 VT5       0.152900
     10 C6           0.8750     1.4440    -2.7460 c3         1 VT5      -0.077700
     11 C11          1.8550     2.6010    -2.5460 c3         1 VT5      -0.092400
     12 C10          1.1110     3.9310    -2.6830 c3         1 VT5      -0.075400
     13 C9           0.4890     4.0250    -4.0780 c3         1 VT5      -0.081400
     14 C8          -0.4920     2.8680    -4.2780 c3         1 VT5      -0.075400
     15 C7           0.2530     1.5390    -4.1410 c3         1 VT5      -0.092400
     16 C12          2.6640     0.1460    -4.9400 ca         1 VT5       0.039600
     17 C13          2.1590    -0.9250    -5.6660 ca         1 VT5      -0.099000
     18 C14          2.0760    -0.8460    -7.0430 ca         1 VT5      -0.130000
     19 C15          2.4970     0.2970    -7.7000 ca         1 VT5       0.053400
     20 C16          3.0010     1.3650    -6.9810 ca         1 VT5      -0.158000
     21 C17          3.0810     1.2970    -5.6020 ca         1 VT5       0.151900
     22 F            3.5740     2.3390    -4.8990 f          1 VT5      -0.114900
     23 Cl           2.3910     0.3900    -9.4300 cl         1 VT5      -0.088400
     24 O2           4.4570    -0.2310    -0.3840 oh         1 VT5      -0.448100
     25 H1          -0.3610    -0.4980     0.8920 hc         1 VT5       0.061367
     26 H2          -0.3610    -0.5230    -0.8770 hc         1 VT5       0.061367
     27 H3          -0.3610     1.0210    -0.0140 hc         1 VT5       0.061367
     28 H4           0.9490    -0.7170    -2.7950 h1         1 VT5       0.072700
     29 H5           0.0920     1.5030    -2.0000 hc         1 VT5       0.063700
     30 H6           2.6350     2.5460    -3.2960 hc         1 VT5       0.052950
     31 H7           2.2930     2.5340    -1.5570 hc         1 VT5       0.052950
     32 H8           1.8070     4.7490    -2.5430 hc         1 VT5       0.042200
     33 H9           0.3290     3.9840    -1.9350 hc         1 VT5       0.042200
     34 H10         -0.0400     4.9660    -4.1720 hc         1 VT5       0.043700
     35 H11          1.2710     3.9680    -4.8250 hc         1 VT5       0.043700
     36 H12         -1.2710     2.9230    -3.5280 hc         1 VT5       0.042200
     37 H13         -0.9300     2.9350    -5.2670 hc         1 VT5       0.042200
     38 H14         -0.4430     0.7210    -4.2820 hc         1 VT5       0.052950
     39 H15          1.0360     1.4870    -4.8880 hc         1 VT5       0.052950
     40 H16          1.8290    -1.8200    -5.1530 ha         1 VT5       0.151000
     41 H17          1.6820    -1.6810    -7.6100 ha         1 VT5       0.154000
     42 H18          3.3280     2.2600    -7.4970 ha         1 VT5       0.166000
     43 H19          4.9560    -1.0220    -0.5080 ho         1 VT5       0.440000
@<TRIPOS>BOND
     1    23    19 1
     2    20    19 ar
     3    20    21 ar
     4    19    18 ar
     5    22    21 1
     6    21    16 ar
     7    14    13 1
     8    14    15 1
     9    18    17 ar
    10    13    12 1
    11    16    17 ar
    12    16     8 1
    13    12    11 1
    14    15    10 1
    15     7     6 2
    16    10    11 1
    17    10     9 1
    18     8     6 1
    19     8     9 1
    20     6     5 1
    21     9     4 1
    22     5     4 2
    23     5    24 1
    24     4     2 1
    25     2     3 2
    26     2     1 1
    27     1    25 1
    28     1    26 1
    29     1    27 1
    30     9    28 1
    31    10    29 1
    32    11    30 1
    33    11    31 1
    34    12    32 1
    35    12    33 1
    36    13    34 1
    37    13    35 1
    38    14    36 1
    39    14    37 1
    40    15    38 1
    41    15    39 1
    42    17    40 1
    43    18    41 1
    44    20    42 1
    45    24    43 1
@<TRIPOS>SUBSTRUCTURE
     1 VT5         1 TEMP              0 ****  ****    0 ROOT
