@<TRIPOS>MOLECULE
molecule
   44    45     1     0     0
SMALL
bcc


@<TRIPOS>ATOM
      1 O4           0.0000     0.0000     0.0000 o          1 VT7      -0.725500
      2 C4           1.2170     0.0000     0.0000 c          1 VT7       0.698700
      3 C5           1.9340     0.0000     1.2210 cc         1 VT7      -0.345400
      4 C5M          1.1980    -0.0010     2.5360 c3         1 VT7       0.016100
      5 C6           3.2830    -0.0010     1.1920 cd         1 VT7      -0.073400
      6 N3           1.8970    -0.0060    -1.1650 ns         1 VT7      -0.570500
      7 C2           3.2430    -0.0060    -1.1660 c          1 VT7       0.806500
      8 O2           3.8430    -0.0120    -2.2230 o          1 VT7      -0.646500
      9 N1           3.9350    -0.0010    -0.0120 n          1 VT7      -0.336000
     10 C1'          5.4000    -0.0020    -0.0430 c3         1 VT7       0.315500
     11 C2'          5.9220    -1.2830    -0.7330 c3         1 VT7      -0.154400
     12 C3'          7.1550    -0.8030    -1.5300 c3         1 VT7       0.106100
     13 O3'          8.3360    -1.4660    -1.0730 oh         1 VT7      -0.608800
     14 O4'          5.8850     1.0820    -0.8650 os         1 VT7      -0.349600
     15 C4'          7.2320     0.7100    -1.2290 c3         1 VT7       0.131100
     16 C5'          7.6780     1.4790    -2.4740 c3         1 VT7       0.242400
     17 O5'          7.8550     2.8570    -2.1450 os         1 VT7      -0.589200
     18 PA           8.3230     3.9630    -3.2180 p5         1 VT7       1.437800
     19 O1A          7.1890     4.1250    -4.3500 o          1 VT7      -0.851000
     20 O2A          9.5910     3.5340    -3.8480 o          1 VT7      -0.851000
     21 O3A          8.5430     5.3740    -2.4740 os         1 VT7      -0.714800
     22 PB           9.2730     6.7510    -2.8810 p5         1 VT7       1.239600
     23 O2B          8.6350     7.3080    -4.0930 o          1 VT7      -0.787000
     24 O1B         10.8290     6.4650    -3.1770 o          1 VT7      -0.787000
     25 C3B          9.1240     7.9440    -1.5110 c3         1 VT7       0.099200
     26 PG           9.9510     9.5020    -1.9710 p5         1 VT7       1.054700
     27 O3G          9.3120    10.0610    -3.1840 o          1 VT7      -0.816167
     28 O2G          9.8190    10.5570    -0.7620 o          1 VT7      -0.816167
     29 O1G         11.5070     9.2180    -2.2670 o          1 VT7      -0.816167
     30 F2B          7.7710     8.1920    -1.2540 f          1 VT7      -0.280800
     31 F3B          9.7280     7.4170    -0.3650 f          1 VT7      -0.280800
     32 H1           1.9070    -0.1190     3.3470 hc         1 VT7       0.016700
     33 H2           0.6680     0.9370     2.6540 hc         1 VT7       0.016700
     34 H3           0.4900    -0.8210     2.5540 hc         1 VT7       0.016700
     35 H4           3.8480     0.0010     2.1170 h4         1 VT7       0.137000
     36 H5           1.3990    -0.0100    -2.0330 hn         1 VT7       0.338500
     37 H6           5.8040     0.0760     0.9590 h2         1 VT7       0.056700
     38 H7           6.2130    -2.0190     0.0060 hc         1 VT7       0.049700
     39 H8           5.1710    -1.6840    -1.4030 hc         1 VT7       0.049700
     40 H9           7.0060    -0.9690    -2.5910 h1         1 VT7       0.057700
     41 H10          8.5790    -2.1360    -1.6900 ho         1 VT7       0.383000
     42 H11          7.9090     0.8940    -0.4030 h1         1 VT7       0.066700
     43 H12          8.6140     1.0700    -2.8350 h1         1 VT7       0.033700
     44 H13          6.9230     1.3860    -3.2450 h1         1 VT7       0.033700
@<TRIPOS>BOND
     1     8     7 2
     2     7     6 1
     3     7     9 1
     4     6     2 1
     5    11    10 1
     6    11    12 1
     7    10     9 1
     8    10    14 1
     9     9     5 1
    10    13    12 1
    11     2     1 2
    12     2     3 1
    13    12    15 1
    14    14    15 1
    15     5     3 2
    16    15    16 1
    17     3     4 1
    18    23    22 1
    19    16    17 1
    20    17    18 1
    21    22    21 1
    22    22    24 1
    23    22    25 1
    24    21    18 1
    25    31    25 1
    26    18    20 1
    27    18    19 1
    28    25    30 1
    29    25    26 1
    30    27    26 1
    31    26    29 1
    32    26    28 1
    33     4    32 1
    34     4    33 1
    35     4    34 1
    36     5    35 1
    37     6    36 1
    38    10    37 1
    39    11    38 1
    40    11    39 1
    41    12    40 1
    42    13    41 1
    43    15    42 1
    44    16    43 1
    45    16    44 1
@<TRIPOS>SUBSTRUCTURE
     1 VT7         1 TEMP              0 ****  ****    0 ROOT
