@<TRIPOS>MOLECULE
molecule
   44    45     1     0     0
SMALL
bcc


@<TRIPOS>ATOM
      1 N1           0.0000     0.0000     0.0000 n          1 VT8      -0.336000
      2 C2           1.3450     0.0000     0.0000 c          1 VT8       0.805500
      3 O2           1.9450    -0.0010    -1.0580 o          1 VT8      -0.640500
      4 N3           2.0370     0.0000     1.1550 ns         1 VT8      -0.569500
      5 C4           1.3870     0.0000     2.3360 c          1 VT8       0.700700
      6 O4           2.0130     0.0020     3.3810 o          1 VT8      -0.720500
      7 C5          -0.0290     0.0000     2.3500 cc         1 VT8      -0.342400
      8 C7          -0.7790     0.0000     3.6570 c3         1 VT8       0.014100
      9 C6          -0.6970    -0.0000     1.1770 cd         1 VT8      -0.055400
     10 PA           0.4620    -3.9730    -5.4090 p5         1 VT8       1.438800
     11 PB          -0.3400    -6.7530    -6.0490 p5         1 VT8       1.258600
     12 PG          -1.4900    -9.4970    -6.1600 p5         1 VT8       1.079700
     13 C1'         -0.7260     0.0050    -1.2720 c3         1 VT8       0.313500
     14 O1A          2.0140    -4.1470    -5.0190 o          1 VT8      -0.851500
     15 O2B          1.0240    -7.3230    -6.1240 o          1 VT8      -0.799000
     16 O1G         -0.0070   -10.1160    -6.2420 o          1 VT8      -0.808833
     17 C2'         -0.3930     1.2820    -2.0760 c3         1 VT8      -0.155400
     18 O2A          0.3530    -3.5430    -6.8210 o          1 VT8      -0.851500
     19 O1B         -0.8840    -6.4650    -7.5360 o          1 VT8      -0.799000
     20 Cl1         -0.8380    -8.2620    -3.5500 cl         1 VT8      -0.272400
     21 O2G         -2.4680   -10.5430    -5.4240 o          1 VT8      -0.808833
     22 C3'         -0.3470     0.8020    -3.5430 c3         1 VT8       0.107100
     23 O3'         -1.3400     1.4720    -4.3210 oh         1 VT8      -0.608800
     24 O3A         -0.3010    -5.3770    -5.2150 os         1 VT8      -0.714800
     25 C3B         -1.4470    -7.9390    -5.2160 c3         1 VT8      -0.006600
     26 O3G         -1.9900    -9.2320    -7.5270 o          1 VT8      -0.808833
     27 C4'         -0.6570    -0.7090    -3.4530 c3         1 VT8       0.132100
     28 O4'         -0.2810    -1.0830    -2.1100 os         1 VT8      -0.348600
     29 C5'          0.1750    -1.4850    -4.4750 c3         1 VT8       0.241400
     30 O5'         -0.2100    -2.8610    -4.4570 os         1 VT8      -0.588200
     31 Cl2         -3.1090    -7.2460    -5.1230 cl         1 VT8      -0.272400
     32 H1           3.0370    -0.0000     1.1360 hn         1 VT8       0.340500
     33 H2          -1.8430     0.0650     3.4630 hc         1 VT8       0.018700
     34 H3          -0.5650    -0.9150     4.1970 hc         1 VT8       0.018700
     35 H4          -0.4690     0.8510     4.2520 hc         1 VT8       0.018700
     36 H5          -1.7810    -0.0000     1.1680 h4         1 VT8       0.140000
     37 H6          -1.7940    -0.0630    -1.1040 h2         1 VT8       0.056700
     38 H9           0.5710     1.6770    -1.7760 hc         1 VT8       0.049200
     39 H10         -1.1710     2.0250    -1.9450 hc         1 VT8       0.049200
     40 H13          0.6400     0.9600    -3.9610 h1         1 VT8       0.058700
     41 H14         -0.9310     2.1380    -4.8480 ho         1 VT8       0.384000
     42 H15         -1.7150    -0.8840    -3.6090 h1         1 VT8       0.067700
     43 H16          0.0060    -1.0760    -5.4640 h1         1 VT8       0.033700
     44 H17          1.2250    -1.4010    -4.2250 h1         1 VT8       0.033700
@<TRIPOS>BOND
     1     3     2 2
     2     2     4 1
     3     2     1 1
     4     4     5 1
     5    17    13 1
     6    17    22 1
     7    13     1 1
     8    13    28 1
     9     1     9 1
    10    23    22 1
    11    22    27 1
    12     5     6 2
    13     5     7 1
    14    28    27 1
    15    27    29 1
    16     9     7 2
    17     7     8 1
    18    15    11 1
    19    29    30 1
    20    30    10 1
    21    24    11 1
    22    24    10 1
    23    11    19 1
    24    11    25 1
    25    20    25 1
    26    10    18 1
    27    10    14 1
    28    25    31 1
    29    25    12 1
    30    26    12 1
    31    12    16 1
    32    12    21 1
    33     4    32 1
    34     8    33 1
    35     8    34 1
    36     8    35 1
    37     9    36 1
    38    13    37 1
    39    17    38 1
    40    17    39 1
    41    22    40 1
    42    23    41 1
    43    27    42 1
    44    29    43 1
    45    29    44 1
@<TRIPOS>SUBSTRUCTURE
     1 VT8         1 TEMP              0 ****  ****    0 ROOT
