@<TRIPOS>MOLECULE
molecule
   31    31     1     0     0
SMALL
bcc


@<TRIPOS>ATOM
      1 C1           0.0000     0.0000     0.0000 c3         1 VTB       0.095100
      2 C2           1.5320     0.0000     0.0000 c3         1 VTB       0.113100
      3 C3           2.0320     0.0000     1.4480 c3         1 VTB       0.125100
      4 O4           0.0240    -1.1680     2.1150 os         1 VTB      -0.347600
      5 O6          -0.4780     1.1990     0.6130 oh         1 VTB      -0.584800
      6 C7          -0.5020    -1.2130     0.7880 c3         1 VTB       0.131100
      7 O8           2.0100     1.1680    -0.6700 oh         1 VTB      -0.620800
      8 C10         -2.0310    -1.1880     0.8430 c3         1 VTB       0.232400
      9 O12         -2.5040    -2.3780     1.4760 os         1 VTB      -0.564200
     10 O15          3.4580    -0.0730     1.4610 oh         1 VTB      -0.613800
     11 P15         -4.0670    -2.6880     1.7050 p5         1 VTB       1.179900
     12 O16         -4.7800    -2.6090     0.4100 o          1 VTB      -0.910167
     13 O17         -4.2370    -4.1650     2.3230 o          1 VTB      -0.910167
     14 O18         -4.6850    -1.6050     2.7250 o          1 VTB      -0.910167
     15 C20          1.4510    -1.2130     2.1800 c3         1 VTB       0.346600
     16 O20          1.9190    -2.4120     1.5590 oh         1 VTB      -0.618800
     17 C21          1.8970    -1.1880     3.6420 c3         1 VTB       0.123400
     18 O22          1.3550    -2.3200     4.3260 oh         1 VTB      -0.580800
     19 H1          -0.3600    -0.0590    -1.0200 h1         1 VTB       0.036700
     20 H2           1.8930    -0.8870    -0.5060 h1         1 VTB       0.060700
     21 H3           1.7070     0.9080     1.9410 h1         1 VTB       0.068700
     22 H4          -0.9220     1.7260    -0.0310 ho         1 VTB       0.392000
     23 H5          -0.1680    -2.1210     0.3000 h1         1 VTB       0.061700
     24 H6           2.3320     0.9310    -1.5240 ho         1 VTB       0.388000
     25 H7          -2.3580    -0.3240     1.4080 h1         1 VTB       0.025200
     26 H8          -2.4280    -1.1330    -0.1640 h1         1 VTB       0.025200
     27 H9           3.8140     0.7640     1.7080 ho         1 VTB       0.388000
     28 H12          2.2170    -3.0140     2.2210 ho         1 VTB       0.418000
     29 H13          1.5430    -0.2790     4.1130 h1         1 VTB       0.026200
     30 H14          2.9790    -1.2210     3.6900 h1         1 VTB       0.026200
     31 H15          1.3490    -2.1540     5.2540 ho         1 VTB       0.397000
@<TRIPOS>BOND
     1     5     1 1
     2     7     2 1
     3     1     2 1
     4     1     6 1
     5     9     8 1
     6     9    11 1
     7     2     3 1
     8    12    11 1
     9     8     6 1
    10    13    11 1
    11    11    14 1
    12     6     4 1
    13     3    10 1
    14     3    15 1
    15     4    15 1
    16    15    16 1
    17    15    17 1
    18    17    18 1
    19     1    19 1
    20     2    20 1
    21     3    21 1
    22     5    22 1
    23     6    23 1
    24     7    24 1
    25     8    25 1
    26     8    26 1
    27    10    27 1
    28    16    28 1
    29    17    29 1
    30    17    30 1
    31    18    31 1
@<TRIPOS>SUBSTRUCTURE
     1 VTB         1 TEMP              0 ****  ****    0 ROOT
