@<TRIPOS>MOLECULE
VTB
   31    31     1     0     0
SMALL
bcc


@<TRIPOS>ATOM
      1 C1         -0.2540   -0.7950    0.2630 c3        1 VTB      0.121100
      2 C2          1.2290   -0.5960   -0.1060 c3        1 VTB      0.113100
      3 C3          2.0040   -0.0720    1.1120 c3        1 VTB      0.115100
      4 O4          0.4170   -1.2880    2.6020 os        1 VTB     -0.459600
      5 O6         -0.7940    0.4890    0.4720 oh        1 VTB     -0.699800
      6 C7         -0.3840   -1.7100    1.4800 c3        1 VTB      0.083100
      7 O8          1.3760    0.3050   -1.1880 oh        1 VTB     -0.625800
      8 C10        -1.8380   -1.7670    2.0270 c3        1 VTB      0.239400
      9 O12        -2.6460   -2.4420    1.1550 os        1 VTB     -0.563200
     10 O15         3.3950    0.0350    0.8670 oh        1 VTB     -0.610800
     11 P15        -3.9260   -1.4670    0.4820 p5        1 VTB      1.328900
     12 O16        -4.7840   -2.4690   -0.2250 o         1 VTB     -0.919833
     13 O17        -4.4750   -0.7900    1.7030 o         1 VTB     -0.919833
     14 O18        -3.0750   -0.5620   -0.3900 o         1 VTB     -0.919833
     15 C20         1.7610   -0.9850    2.3290 c3        1 VTB      0.285600
     16 O20         2.4050   -2.2260    2.0810 oh        1 VTB     -0.648800
     17 C21         2.3160   -0.3440    3.6210 c3        1 VTB      0.121400
     18 O22         2.0810   -1.1690    4.7450 oh        1 VTB     -0.631800
     19 H1         -0.7920   -1.2940   -0.5980 h1        1 VTB      0.109700
     20 H2          1.6820   -1.5650   -0.4520 h1        1 VTB      0.054700
     21 H3          1.6620    0.9720    1.3550 h1        1 VTB      0.096700
     22 HO6        -1.7810    0.3920    0.3110 ho        1 VTB      0.515000
     23 H7         -0.0360   -2.7400    1.1920 h1        1 VTB      0.025700
     24 HO8         0.6420    0.9360   -1.1240 ho        1 VTB      0.429000
     25 H10        -1.7800   -2.3170    3.0130 h1        1 VTB      0.007700
     26 H10A       -2.2020   -0.7180    2.2150 h1        1 VTB      0.007700
     27 HO15        3.6820   -0.8290    0.5450 ho        1 VTB      0.401000
     28 HO20        2.0860   -2.8400    2.7530 ho        1 VTB      0.415000
     29 H21         3.4290   -0.2500    3.5380 h1        1 VTB      0.049200
     30 H21A        1.8410    0.6590    3.7720 h1        1 VTB      0.049200
     31 HO22        1.1370   -1.3830    4.7400 ho        1 VTB      0.426000
@<TRIPOS>BOND
     1    1    2 1   
     2    1    5 1   
     3    1    6 1   
     4    1   19 1   
     5    2    3 1   
     6    2    7 1   
     7    2   20 1   
     8    3   10 1   
     9    3   15 1   
    10    3   21 1   
    11    4    6 1   
    12    4   15 1   
    13    5   22 1   
    14    6    8 1   
    15    6   23 1   
    16    7   24 1   
    17    8    9 1   
    18    8   25 1   
    19    8   26 1   
    20    9   11 1   
    21   10   27 1   
    22   11   12 1   
    23   11   13 1   
    24   11   14 1   
    25   15   16 1   
    26   15   17 1   
    27   16   28 1   
    28   17   18 1   
    29   17   29 1   
    30   17   30 1   
    31   18   31 1   
@<TRIPOS>SUBSTRUCTURE
     1 VTB         1 TEMP              0 ****  ****    0 ROOT
