@<TRIPOS>MOLECULE
VTI
   48    50     1     0     0
SMALL
bcc


@<TRIPOS>ATOM
      1 CAA          0.0000     0.0000     0.0000 c3         1 VTI      -0.061100
      2 CAT          1.5070     0.0000     0.0000 c          1 VTI       0.541100
      3 OAC          2.1130     0.0000     1.0510 o          1 VTI      -0.618100
      4 NAS          2.1810    -0.0010    -1.1670 ns         1 VTI      -0.043100
      5 CAZ          3.5790     0.0810    -1.1680 ca         1 VTI      -0.067400
      6 CAY          4.3220    -0.7100    -2.0350 ca         1 VTI      -0.047600
      7 CAN          5.7010    -0.6270    -2.0350 ca         1 VTI      -0.062500
      8 ClF          3.5180    -1.8040    -3.1190 cl         1 VTI       0.014600
      9 CAX          4.2260     0.9580    -0.3060 ca         1 VTI      -0.047600
     10 ClE          3.3020     1.9530     0.7750 cl         1 VTI       0.014600
     11 CAM          5.6060     1.0360    -0.3110 ca         1 VTI      -0.062500
     12 CAW          6.3420     0.2430    -1.1710 ca         1 VTI      -0.110300
     13 CAO          7.8470     0.3310    -1.1730 c3         1 VTI       0.238100
     14 NAQ          8.3920    -0.6300    -0.2120 nu         1 VTI      -0.573200
     15 CAU          9.7530    -0.7310    -0.0390 c2         1 VTI       0.399800
     16 NAB         10.5500     0.1070    -0.6360 n2         1 VTI      -0.847100
     17 NAR         10.2740    -1.7220     0.7710 ns         1 VTI      -0.018400
     18 C            9.4630    -2.6670     1.2860 c          1 VTI       0.537100
     19 O            8.2960    -2.7100     0.9580 o          1 VTI      -0.614100
     20 CA          10.0070    -3.6710     2.2700 c3         1 VTI      -0.105700
     21 N            8.9360    -4.5830     2.6780 na         1 VTI       0.408600
     22 CBB          8.5580    -5.7160     1.9930 ca         1 VTI      -0.196200
     23 CAJ          9.0020    -6.3200     0.8210 ca         1 VTI      -0.105000
     24 CAH          8.4060    -7.4820     0.3810 ca         1 VTI      -0.082000
     25 CAG          7.3640    -8.0580     1.0950 ca         1 VTI      -0.134000
     26 CAI          6.9120    -7.4810     2.2490 ca         1 VTI      -0.040000
     27 CBA          7.5030    -6.3050     2.7130 ca         1 VTI      -0.099800
     28 CAK          7.2760    -5.4420     3.8760 cc         1 VTI      -0.148200
     29 CAL          8.1650    -4.4400     3.8000 cd         1 VTI      -0.251100
     30 H1          -0.3610     0.6910    -0.7520 hc         1 VTI       0.024367
     31 H2          -0.3610     0.3060     0.9740 hc         1 VTI       0.024367
     32 H3          -0.3610    -0.9970    -0.2220 hc         1 VTI       0.024367
     33 H4           1.6800    -0.0260    -2.0340 hn         1 VTI       0.177500
     34 H5           6.2810    -1.2450    -2.7090 ha         1 VTI       0.121500
     35 H6           6.1110     1.7180     0.3620 ha         1 VTI       0.121500
     36 H7           8.1510     1.3330    -0.8940 h1         1 VTI       0.016200
     37 H8           8.2210     0.1030    -2.1640 h1         1 VTI       0.016200
     38 H9           7.7740    -1.1770     0.3530 hn         1 VTI       0.369800
     39 H10         10.1720     0.8250    -1.2220 hn         1 VTI       0.343400
     40 H11         11.2550    -1.7430     0.9690 hn         1 VTI       0.185500
     41 H12         10.3910    -3.1530     3.1410 h1         1 VTI       0.047700
     42 H13         10.8050    -4.2370     1.8060 h1         1 VTI       0.047700
     43 H14          9.8140    -5.8780     0.2560 ha         1 VTI       0.095000
     44 H15          8.7530    -7.9500    -0.5320 ha         1 VTI       0.099000
     45 H16          6.9060    -8.9710     0.7360 ha         1 VTI       0.101000
     46 H17          6.0990    -7.9360     2.8010 ha         1 VTI       0.100000
     47 H18          6.5370    -5.5900     4.6540 ha         1 VTI       0.129000
     48 H19          8.2600    -3.6370     4.5210 h4         1 VTI       0.137000
@<TRIPOS>BOND
     1     1     2 1   
     2     1    30 1   
     3     1    31 1   
     4     1    32 1   
     5     2     3 2   
     6     2     4 1   
     7     4     5 1   
     8     4    33 1   
     9     5     6 ar  
    10     5     9 ar  
    11     6     7 ar  
    12     6     8 1   
    13     7    12 ar  
    14     7    34 1   
    15     9    10 1   
    16     9    11 ar  
    17    11    12 ar  
    18    11    35 1   
    19    12    13 1   
    20    13    14 1   
    21    13    36 1   
    22    13    37 1   
    23    14    15 1   
    24    14    38 1   
    25    15    16 2   
    26    15    17 1   
    27    16    39 1   
    28    17    18 1   
    29    17    40 1   
    30    18    19 2   
    31    18    20 1   
    32    20    21 1   
    33    20    41 1   
    34    20    42 1   
    35    21    22 1   
    36    21    29 1   
    37    22    23 ar  
    38    22    27 ar  
    39    23    24 ar  
    40    23    43 1   
    41    24    25 ar  
    42    24    44 1   
    43    25    26 ar  
    44    25    45 1   
    45    26    27 ar  
    46    26    46 1   
    47    27    28 1   
    48    28    29 2   
    49    28    47 1   
    50    29    48 1   
@<TRIPOS>SUBSTRUCTURE
     1 VTI         1 TEMP              0 ****  ****    0 ROOT
