@<TRIPOS>MOLECULE
molecule
   82    82     1     0     0
SMALL
bcc


@<TRIPOS>ATOM
      1 O3           1.4290     0.0000     0.0000 oh         1 VTQ      -0.597800
      2 C9           0.0000     0.0000     0.0000 c3         1 VTQ       0.152800
      3 C14         -0.5090     0.0000     1.4420 c3         1 VTQ      -0.133100
      4 C11         -0.5090     1.2500    -0.7220 c3         1 VTQ      -0.080400
      5 C10          0.0010     2.4990    -0.0000 c3         1 VTQ      -0.043200
      6 C3          -0.5010     3.7300    -0.7110 cc         1 VTQ      -0.143400
      7 C2          -1.6720     4.2770    -0.3570 cd         1 VTQ      -0.149400
      8 C8          -2.4860     3.6620     0.7520 c3         1 VTQ      -0.051900
      9 C4           0.3010     4.3360    -1.7920 c          1 VTQ       0.559500
     10 O1           1.3620     3.8400    -2.1120 o          1 VTQ      -0.492100
     11 C5          -0.1930     5.5400    -2.4910 cc         1 VTQ      -0.146400
     12 C12          0.6220     6.1550    -3.5990 c3         1 VTQ      -0.051900
     13 C6          -1.3630     6.0870    -2.1370 cd         1 VTQ      -0.151400
     14 C13         -1.8650     7.3180    -2.8480 c3         1 VTQ      -0.050900
     15 C7          -2.1630     5.4840    -1.0520 c          1 VTQ       0.563500
     16 O2          -3.2230     5.9790    -0.7310 o          1 VTQ      -0.502100
     17 C15         -0.5090    -1.2490    -0.7220 c3         1 VTQ      -0.080400
     18 C16         -0.0010    -2.4980    -0.0010 c3         1 VTQ      -0.086400
     19 C17         -0.5100    -3.7460    -0.7220 c3         1 VTQ      -0.076400
     20 C18         -0.0010    -4.9960    -0.0020 c3         1 VTQ      -0.073700
     21 C19          1.5280    -4.9970    -0.0010 c3         1 VTQ      -0.095100
     22 C20         -0.5100    -6.2450    -0.7220 c3         1 VTQ      -0.077400
     23 C21         -0.0020    -7.4940    -0.0020 c3         1 VTQ      -0.086400
     24 C22         -0.5120    -8.7430    -0.7230 c3         1 VTQ      -0.077400
     25 C23         -0.0020    -9.9920    -0.0020 c3         1 VTQ      -0.074700
     26 C1           1.5270    -9.9930    -0.0020 c3         1 VTQ      -0.092100
     27 C24         -0.5120   -11.2410    -0.7240 c3         1 VTQ      -0.077400
     28 C25         -0.0030   -12.4910    -0.0020 c3         1 VTQ      -0.085400
     29 C26         -0.5130   -13.7400    -0.7240 c3         1 VTQ      -0.076400
     30 C27         -0.0030   -14.9900    -0.0030 c3         1 VTQ      -0.077700
     31 C28         -0.5130   -16.2390    -0.7240 c3         1 VTQ      -0.087600
     32 C29          1.5250   -14.9900    -0.0030 c3         1 VTQ      -0.087600
     33 H3           1.7430     0.0750     0.8860 ho         1 VTQ       0.402000
     34 H141        -0.1190    -0.8660     1.9630 hc         1 VTQ       0.045033
     35 H142        -0.1780     0.9020     1.9420 hc         1 VTQ       0.045033
     36 H143        -1.5920    -0.0360     1.4420 hc         1 VTQ       0.045033
     37 H111        -1.5930     1.2500    -0.7230 hc         1 VTQ       0.056200
     38 H112        -0.1470     1.2500    -1.7430 hc         1 VTQ       0.056200
     39 H101         1.0840     2.4990     0.0000 hc         1 VTQ       0.065200
     40 H102        -0.3600     2.4990     1.0210 hc         1 VTQ       0.065200
     41 H8C1        -3.3060     4.3230     1.0070 hc         1 VTQ       0.056033
     42 H8C2        -2.8810     2.7080     0.4230 hc         1 VTQ       0.056033
     43 H8C3        -1.8580     3.5130     1.6210 hc         1 VTQ       0.056033
     44 H121         0.9050     7.1630    -3.3210 hc         1 VTQ       0.056700
     45 H122         1.5130     5.5620    -3.7640 hc         1 VTQ       0.056700
     46 H123         0.0330     6.1830    -4.5080 hc         1 VTQ       0.056700
     47 H131        -2.8220     7.6100    -2.4330 hc         1 VTQ       0.056367
     48 H132        -1.1540     8.1250    -2.7180 hc         1 VTQ       0.056367
     49 H133        -1.9790     7.1040    -3.9040 hc         1 VTQ       0.056367
     50 H151        -1.5920    -1.2490    -0.7230 hc         1 VTQ       0.051200
     51 H152        -0.1470    -1.2490    -1.7430 hc         1 VTQ       0.051200
     52 H161        -0.3620    -2.4980     1.0200 hc         1 VTQ       0.047700
     53 H162         1.0830    -2.4980    -0.0010 hc         1 VTQ       0.047700
     54 H171        -1.5930    -3.7450    -0.7220 hc         1 VTQ       0.041700
     55 H172        -0.1490    -3.7450    -1.7430 hc         1 VTQ       0.041700
     56 H18         -0.3620    -4.9960     1.0200 hc         1 VTQ       0.047700
     57 H191         1.8900    -4.1250    -0.5340 hc         1 VTQ       0.036700
     58 H192         1.8890    -4.9710     1.0200 hc         1 VTQ       0.036700
     59 H193         1.8890    -5.8940    -0.4890 hc         1 VTQ       0.036700
     60 H201        -1.5940    -6.2440    -0.7230 hc         1 VTQ       0.041200
     61 H202        -0.1490    -6.2450    -1.7440 hc         1 VTQ       0.041200
     62 H211         1.0810    -7.4950    -0.0010 hc         1 VTQ       0.044700
     63 H212        -0.3630    -7.4950     1.0190 hc         1 VTQ       0.044700
     64 H221        -0.1500    -8.7430    -1.7450 hc         1 VTQ       0.041200
     65 H222        -1.5950    -8.7430    -0.7230 hc         1 VTQ       0.041200
     66 H23         -0.3630    -9.9920     1.0190 hc         1 VTQ       0.049700
     67 H1C1         1.8880    -9.1340     0.5500 hc         1 VTQ       0.035033
     68 H1C2         1.8890    -9.9450    -1.0220 hc         1 VTQ       0.035033
     69 H1C3         1.8880   -10.9010     0.4670 hc         1 VTQ       0.035033
     70 H241        -0.1500   -11.2410    -1.7450 hc         1 VTQ       0.041200
     71 H242        -1.5950   -11.2410    -0.7240 hc         1 VTQ       0.041200
     72 H251        -0.3650   -12.4910     1.0190 hc         1 VTQ       0.044200
     73 H252         1.0800   -12.4920    -0.0010 hc         1 VTQ       0.044200
     74 H261        -0.1520   -13.7400    -1.7450 hc         1 VTQ       0.040700
     75 H262        -1.5960   -13.7400    -0.7240 hc         1 VTQ       0.040700
     76 H27         -0.3640   -14.9900     1.0190 hc         1 VTQ       0.048700
     77 H281        -0.0290   -16.3210    -1.6900 hc         1 VTQ       0.033033
     78 H282        -1.5850   -16.1640    -0.8630 hc         1 VTQ       0.033033
     79 H283        -0.2860   -17.1160    -0.1310 hc         1 VTQ       0.033033
     80 H291         1.8860   -14.5690    -0.9330 hc         1 VTQ       0.033033
     81 H292         1.8870   -16.0060     0.0970 hc         1 VTQ       0.033033
     82 H293         1.8870   -14.3950     0.8270 hc         1 VTQ       0.033033
@<TRIPOS>BOND
     1     1     2 1
     2     1    33 1
     3     2     3 1
     4     2     4 1
     5     2    17 1
     6     3    34 1
     7     3    35 1
     8     3    36 1
     9     4     5 1
    10     4    37 1
    11     4    38 1
    12     5     6 1
    13     5    39 1
    14     5    40 1
    15     6     7 2
    16     6     9 1
    17     7     8 1
    18     7    15 1
    19     8    41 1
    20     8    42 1
    21     8    43 1
    22     9    10 2
    23     9    11 1
    24    11    12 1
    25    11    13 2
    26    12    44 1
    27    12    45 1
    28    12    46 1
    29    13    14 1
    30    13    15 1
    31    14    47 1
    32    14    48 1
    33    14    49 1
    34    15    16 2
    35    17    18 1
    36    17    50 1
    37    17    51 1
    38    18    19 1
    39    18    52 1
    40    18    53 1
    41    19    20 1
    42    19    54 1
    43    19    55 1
    44    20    21 1
    45    20    22 1
    46    20    56 1
    47    21    57 1
    48    21    58 1
    49    21    59 1
    50    22    23 1
    51    22    60 1
    52    22    61 1
    53    23    24 1
    54    23    62 1
    55    23    63 1
    56    24    25 1
    57    24    64 1
    58    24    65 1
    59    25    26 1
    60    25    27 1
    61    25    66 1
    62    26    67 1
    63    26    68 1
    64    26    69 1
    65    27    28 1
    66    27    70 1
    67    27    71 1
    68    28    29 1
    69    28    72 1
    70    28    73 1
    71    29    30 1
    72    29    74 1
    73    29    75 1
    74    30    31 1
    75    30    32 1
    76    30    76 1
    77    31    77 1
    78    31    78 1
    79    31    79 1
    80    32    80 1
    81    32    81 1
    82    32    82 1
@<TRIPOS>SUBSTRUCTURE
     1 VTQ         1 TEMP              0 ****  ****    0 ROOT
