@<TRIPOS>MOLECULE
VTQ
   82    82     1     0     0
SMALL
bcc


@<TRIPOS>ATOM
      1 O3          1.6280    0.2950    0.4460 oh        1 VTQ     -0.591800
      2 C9          0.2560    0.0110    0.1800 c3        1 VTQ      0.152800
      3 C14        -0.5100   -0.1610    1.4870 c3        1 VTQ     -0.127100
      4 C11        -0.3800    1.1220   -0.6690 c3        1 VTQ     -0.103400
      5 C10        -0.0490    2.5190   -0.1750 c3        1 VTQ     -0.049200
      6 C3         -0.9130    3.5430   -0.8280 cc        1 VTQ     -0.137400
      7 C2         -2.1000    3.9270   -0.3130 cd        1 VTQ     -0.128400
      8 C8         -2.6440    3.3650    0.9460 c3        1 VTQ     -0.071900
      9 C4         -0.3920    4.1270   -2.0890 c         1 VTQ      0.556500
     10 O1          0.6140    3.6710   -2.6470 o         1 VTQ     -0.501100
     11 C5         -1.1310    5.2880   -2.6430 cc        1 VTQ     -0.135400
     12 C12        -0.5100    5.9970   -3.7860 c3        1 VTQ     -0.068900
     13 C6         -2.3180    5.6750   -2.1280 cd        1 VTQ     -0.138400
     14 C13        -3.0650    6.8300   -2.6760 c3        1 VTQ     -0.067900
     15 C7         -2.9360    4.9520   -0.9910 c         1 VTQ      0.557500
     16 O2         -4.0930    5.1890   -0.6220 o         1 VTQ     -0.504100
     17 C15         0.2510   -1.2880   -0.6400 c3        1 VTQ     -0.066400
     18 C16         0.7610   -2.4780    0.1420 c3        1 VTQ     -0.079400
     19 C17         0.9170   -3.6860   -0.7570 c3        1 VTQ     -0.075400
     20 C18         1.3280   -4.9340    0.0150 c3        1 VTQ     -0.063700
     21 C19         2.7680   -4.8350    0.4720 c3        1 VTQ     -0.090100
     22 C20         1.1150   -6.1680   -0.8520 c3        1 VTQ     -0.076400
     23 C21         1.1290   -7.4500   -0.0450 c3        1 VTQ     -0.079400
     24 C22         0.8530   -8.6490   -0.9290 c3        1 VTQ     -0.076400
     25 C23         0.8220   -9.9530   -0.1420 c3        1 VTQ     -0.064700
     26 C1          2.2220  -10.3800    0.2510 c3        1 VTQ     -0.089100
     27 C24         0.1340  -11.0350   -0.9650 c3        1 VTQ     -0.076400
     28 C25        -0.2490  -12.2390   -0.1310 c3        1 VTQ     -0.079400
     29 C26        -1.0020  -13.2570   -0.9620 c3        1 VTQ     -0.076400
     30 C27        -1.4120  -14.4780   -0.1500 c3        1 VTQ     -0.067700
     31 C28        -2.5110  -15.2360   -0.8670 c3        1 VTQ     -0.089600
     32 C29        -0.2320  -15.3920    0.1080 c3        1 VTQ     -0.089600
     33 H3          1.6500    1.0650    1.0250 ho        1 VTQ      0.397000
     34 H141       -1.5000   -0.6370    1.2900 hc        1 VTQ      0.043367
     35 H142       -0.6810    0.8260    1.9800 hc        1 VTQ      0.043367
     36 H143        0.0720   -0.8090    2.1850 hc        1 VTQ      0.043367
     37 H111       -0.0160    1.0290   -1.7270 hc        1 VTQ      0.058200
     38 H112       -1.4900    0.9680   -0.6720 hc        1 VTQ      0.058200
     39 H101       -0.1720    2.5780    0.9400 hc        1 VTQ      0.061700
     40 H102        1.0300    2.7400   -0.4080 hc        1 VTQ      0.061700
     41 H8C1       -2.5110    2.2540    0.9750 hc        1 VTQ      0.060700
     42 H8C2       -2.1020    3.8060    1.8220 hc        1 VTQ      0.060700
     43 H8C3       -3.7330    3.5980    1.0520 hc        1 VTQ      0.060700
     44 H121       -0.3120    7.0650   -3.5130 hc        1 VTQ      0.060033
     45 H122        0.4550    5.5170   -4.0860 hc        1 VTQ      0.060033
     46 H123       -1.2030    5.9880   -4.6660 hc        1 VTQ      0.060033
     47 H131       -3.2800    6.6690   -3.7640 hc        1 VTQ      0.059700
     48 H132       -4.0350    6.9790   -2.1390 hc        1 VTQ      0.059700
     49 H133       -2.4530    7.7630   -2.5800 hc        1 VTQ      0.059700
     50 H151       -0.7960   -1.4760   -0.9910 hc        1 VTQ      0.049700
     51 H152        0.8990   -1.1330   -1.5420 hc        1 VTQ      0.049700
     52 H161        0.0480   -2.7200    0.9740 hc        1 VTQ      0.047700
     53 H162        1.7460   -2.2130    0.6100 hc        1 VTQ      0.047700
     54 H171        1.6820   -3.4710   -1.5490 hc        1 VTQ      0.039700
     55 H172       -0.0580   -3.8780   -1.2800 hc        1 VTQ      0.039700
     56 H18         0.6690   -5.0220    0.9250 hc        1 VTQ      0.045700
     57 H191        2.9110   -3.9390    1.1230 hc        1 VTQ      0.034367
     58 H192        3.4550   -4.7480   -0.4040 hc        1 VTQ      0.034367
     59 H193        3.0560   -5.7420    1.0580 hc        1 VTQ      0.034367
     60 H201        1.9110   -6.2110   -1.6410 hc        1 VTQ      0.039200
     61 H202        0.1280   -6.0840   -1.3810 hc        1 VTQ      0.039200
     62 H211        0.3530   -7.3930    0.7640 hc        1 VTQ      0.040200
     63 H212        2.1240   -7.5700    0.4580 hc        1 VTQ      0.040200
     64 H221       -0.1340   -8.5010   -1.4420 hc        1 VTQ      0.039700
     65 H222        1.6360   -8.7150   -1.7290 hc        1 VTQ      0.039700
     66 H23         0.2220   -9.7870    0.7970 hc        1 VTQ      0.046700
     67 H1C1        2.7190   -9.5820    0.8530 hc        1 VTQ      0.033367
     68 H1C2        2.8430  -10.5760   -0.6560 hc        1 VTQ      0.033367
     69 H1C3        2.1880  -11.3120    0.8640 hc        1 VTQ      0.033367
     70 H241        0.8110  -11.3540   -1.8000 hc        1 VTQ      0.039700
     71 H242       -0.7930  -10.6100   -1.4330 hc        1 VTQ      0.039700
     72 H251       -0.8870  -11.9120    0.7330 hc        1 VTQ      0.040200
     73 H252        0.6730  -12.7130    0.2990 hc        1 VTQ      0.040200
     74 H261       -0.3680  -13.5800   -1.8280 hc        1 VTQ      0.039700
     75 H262       -1.9220  -12.7730   -1.3870 hc        1 VTQ      0.039700
     76 H27        -1.8140  -14.1270    0.8430 hc        1 VTQ      0.045700
     77 H281       -2.1640  -15.5650   -1.8770 hc        1 VTQ      0.033033
     78 H282       -3.4120  -14.5890   -0.9960 hc        1 VTQ      0.033033
     79 H283       -2.8040  -16.1400   -0.2820 hc        1 VTQ      0.033033
     80 H291       -0.5520  -16.2730    0.7150 hc        1 VTQ      0.033033
     81 H292        0.1950  -15.7630   -0.8550 hc        1 VTQ      0.033033
     82 H293        0.5700  -14.8510    0.6650 hc        1 VTQ      0.033033
@<TRIPOS>BOND
     1    1    2 1   
     2    1   33 1   
     3    2    3 1   
     4    2    4 1   
     5    2   17 1   
     6    3   34 1   
     7    3   35 1   
     8    3   36 1   
     9    4    5 1   
    10    4   37 1   
    11    4   38 1   
    12    5    6 1   
    13    5   39 1   
    14    5   40 1   
    15    6    7 2   
    16    6    9 1   
    17    7    8 1   
    18    7   15 1   
    19    8   41 1   
    20    8   42 1   
    21    8   43 1   
    22    9   10 2   
    23    9   11 1   
    24   11   12 1   
    25   11   13 2   
    26   12   44 1   
    27   12   45 1   
    28   12   46 1   
    29   13   14 1   
    30   13   15 1   
    31   14   47 1   
    32   14   48 1   
    33   14   49 1   
    34   15   16 2   
    35   17   18 1   
    36   17   50 1   
    37   17   51 1   
    38   18   19 1   
    39   18   52 1   
    40   18   53 1   
    41   19   20 1   
    42   19   54 1   
    43   19   55 1   
    44   20   21 1   
    45   20   22 1   
    46   20   56 1   
    47   21   57 1   
    48   21   58 1   
    49   21   59 1   
    50   22   23 1   
    51   22   60 1   
    52   22   61 1   
    53   23   24 1   
    54   23   62 1   
    55   23   63 1   
    56   24   25 1   
    57   24   64 1   
    58   24   65 1   
    59   25   26 1   
    60   25   27 1   
    61   25   66 1   
    62   26   67 1   
    63   26   68 1   
    64   26   69 1   
    65   27   28 1   
    66   27   70 1   
    67   27   71 1   
    68   28   29 1   
    69   28   72 1   
    70   28   73 1   
    71   29   30 1   
    72   29   74 1   
    73   29   75 1   
    74   30   31 1   
    75   30   32 1   
    76   30   76 1   
    77   31   77 1   
    78   31   78 1   
    79   31   79 1   
    80   32   80 1   
    81   32   81 1   
    82   32   82 1   
@<TRIPOS>SUBSTRUCTURE
     1 VTQ         1 TEMP              0 ****  ****    0 ROOT
