@<TRIPOS>MOLECULE
molecule
   35    36     1     0     0
SMALL
bcc


@<TRIPOS>ATOM
      1 C1           0.0000     0.0000     0.0000 c3         1 VU2       0.066800
      2 C2           2.9540    -3.4870    -2.0150 ca         1 VU2      -0.090000
      3 C3           2.9200    -2.2720    -2.6750 ca         1 VU2      -0.117500
      4 C7           2.5290    -3.5730    -0.7020 ca         1 VU2      -0.117500
      5 C9           2.1990     1.3050     1.8950 c3         1 VU2       0.183700
      6 C10          2.7000     1.1860     3.3120 ca         1 VU2      -0.119300
      7 C11          4.0590     1.1310     3.5620 ca         1 VU2      -0.093500
      8 C12          4.5190     1.0210     4.8610 ca         1 VU2      -0.113500
      9 C13          3.6190     0.9660     5.9110 ca         1 VU2       0.051400
     10 C14          2.2600     1.0220     5.6600 ca         1 VU2      -0.113500
     11 C15          1.8010     1.1360     4.3610 ca         1 VU2      -0.093500
     12 N2          -0.4900     1.2540     0.5860 nz         1 VU2      -0.814600
     13 C4           2.4580    -1.1450    -2.0230 ca         1 VU2      -0.101000
     14 C5           2.0320    -1.2300    -0.7110 ca         1 VU2      -0.135300
     15 C6           2.0670    -2.4440    -0.0510 ca         1 VU2      -0.101000
     16 O1           2.0060     0.0000     1.3470 os         1 VU2      -0.397600
     17 Cl           4.1960     0.8280     7.5420 cl         1 VU2      -0.068400
     18 C8           1.5300     0.0000     0.0000 c3         1 VU2       0.180400
     19 H11C        -0.3610    -0.0890    -1.0180 hx         1 VU2       0.121200
     20 H12C        -0.3610    -0.8370     0.5850 hx         1 VU2       0.121200
     21 H21N         0.1050     2.0080     0.3050 hn         1 VU2       0.456133
     22 H22N        -0.4870     1.1800     1.5840 hn         1 VU2       0.456133
     23 H8           1.8910     0.8850    -0.5110 h1         1 VU2       0.055700
     24 H7           2.5560    -4.5240    -0.1850 ha         1 VU2       0.151000
     25 H4           2.4310    -0.1930    -2.5410 ha         1 VU2       0.135500
     26 H6           1.7340    -2.5110     0.9770 ha         1 VU2       0.135500
     27 H91C         1.2590     1.8420     1.8890 h1         1 VU2       0.012200
     28 H92C         2.9270     1.8430     1.2990 h1         1 VU2       0.012200
     29 H11          4.7630     1.1750     2.7400 ha         1 VU2       0.130000
     30 H15          0.7370     1.1800     4.1640 ha         1 VU2       0.130000
     31 H12          5.5830     0.9780     5.0570 ha         1 VU2       0.159500
     32 H14          1.5550     0.9800     6.4820 ha         1 VU2       0.159500
     33 H2           3.3160    -4.3710    -2.5260 ha         1 VU2       0.152000
     34 H23         -1.4250     1.4250     0.2730 hn         1 VU2       0.456133
     35 H3           3.2540    -2.2050    -3.7030 ha         1 VU2       0.151000
@<TRIPOS>BOND
     1     1    12 1
     2     1    18 1
     3     2     3 ar
     4     2     4 ar
     5     3    13 ar
     6     4    15 ar
     7     5     6 1
     8     5    16 1
     9     6     7 ar
    10     6    11 ar
    11     7     8 ar
    12     8     9 ar
    13     9    10 ar
    14     9    17 1
    15    10    11 ar
    16    13    14 ar
    17    14    15 ar
    18    14    18 1
    19    16    18 1
    20     1    19 1
    21     1    20 1
    22    12    21 1
    23    12    22 1
    24    18    23 1
    25     2    33 1
    26     3    35 1
    27     4    24 1
    28    13    25 1
    29    15    26 1
    30     5    27 1
    31     5    28 1
    32     7    29 1
    33    11    30 1
    34     8    31 1
    35    10    32 1
    36    34    12 1
@<TRIPOS>SUBSTRUCTURE
     1 VU2         1 TEMP              0 ****  ****    0 ROOT
