@<TRIPOS>MOLECULE
VU2
   35    36     1     0     0
SMALL
bcc


@<TRIPOS>ATOM
      1 C1           0.0000     0.0000     0.0000 c3         1 VU2      -0.085200
      2 C2           2.9540    -3.4870    -2.0150 ca         1 VU2      -0.059000
      3 C3           2.9200    -2.2720    -2.6750 ca         1 VU2      -0.086500
      4 C7           2.5290    -3.5730    -0.7020 ca         1 VU2      -0.086500
      5 C9           2.1990     1.3050     1.8950 c3         1 VU2       0.276700
      6 C10          2.7000     1.1860     3.3120 ca         1 VU2      -0.147300
      7 C11          4.0590     1.1310     3.5620 ca         1 VU2      -0.061500
      8 C12          4.5190     1.0210     4.8610 ca         1 VU2      -0.089000
      9 C13          3.6190     0.9660     5.9110 ca         1 VU2      -0.019600
     10 C14          2.2600     1.0220     5.6600 ca         1 VU2      -0.089000
     11 C15          1.8010     1.1360     4.3610 ca         1 VU2      -0.061500
     12 N2          -0.4900     1.2540     0.5860 nz         1 VU2       0.059400
     13 C4           2.4580    -1.1450    -2.0230 ca         1 VU2      -0.072500
     14 C5           2.0320    -1.2300    -0.7110 ca         1 VU2      -0.158300
     15 C6           2.0670    -2.4440    -0.0510 ca         1 VU2      -0.072500
     16 O1           2.0060     0.0000     1.3470 os         1 VU2      -0.385600
     17 Cl           4.1960     0.8280     7.5420 cl         1 VU2       0.021600
     18 C8           1.5300     0.0000     0.0000 c3         1 VU2       0.242400
     19 H11C        -0.3610    -0.0890    -1.0180 hx         1 VU2       0.095200
     20 H12C        -0.3610    -0.8370     0.5850 hx         1 VU2       0.095200
     21 H21N         0.1050     2.0080     0.3050 hn         1 VU2       0.229467
     22 H22N        -0.4870     1.1800     1.5840 hn         1 VU2       0.229467
     23 H8           1.8910     0.8850    -0.5110 h1         1 VU2       0.024700
     24 H7           2.5560    -4.5240    -0.1850 ha         1 VU2       0.119000
     25 H4           2.4310    -0.1930    -2.5410 ha         1 VU2       0.107000
     26 H6           1.7340    -2.5110     0.9770 ha         1 VU2       0.107000
     27 H91C         1.2590     1.8420     1.8890 h1         1 VU2      -0.025300
     28 H92C         2.9270     1.8430     1.2990 h1         1 VU2      -0.025300
     29 H11          4.7630     1.1750     2.7400 ha         1 VU2       0.099000
     30 H15          0.7370     1.1800     4.1640 ha         1 VU2       0.099000
     31 H12          5.5830     0.9780     5.0570 ha         1 VU2       0.126000
     32 H14          1.5550     0.9800     6.4820 ha         1 VU2       0.126000
     33 H2           3.3160    -4.3710    -2.5260 ha         1 VU2       0.118000
     34 H23         -1.4250     1.4250     0.2730 hn         1 VU2       0.229467
     35 H3           3.2540    -2.2050    -3.7030 ha         1 VU2       0.119000
@<TRIPOS>BOND
     1     1    12 1   
     2     1    18 1   
     3     1    19 1   
     4     1    20 1   
     5     2     3 ar  
     6     2     4 ar  
     7     2    33 1   
     8     3    13 ar  
     9     3    35 1   
    10     4    15 ar  
    11     4    24 1   
    12     5     6 1   
    13     5    16 1   
    14     5    27 1   
    15     5    28 1   
    16     6     7 ar  
    17     6    11 ar  
    18     7     8 ar  
    19     7    29 1   
    20     8     9 ar  
    21     8    31 1   
    22     9    10 ar  
    23     9    17 1   
    24    10    11 ar  
    25    10    32 1   
    26    11    30 1   
    27    12    21 1   
    28    12    22 1   
    29    12    34 1   
    30    13    14 ar  
    31    13    25 1   
    32    14    15 ar  
    33    14    18 1   
    34    15    26 1   
    35    16    18 1   
    36    18    23 1   
@<TRIPOS>SUBSTRUCTURE
     1 VU2         1 TEMP              0 ****  ****    0 ROOT
