@<TRIPOS>MOLECULE
VU3
   47    50     1     0     0
SMALL
bcc


@<TRIPOS>ATOM
      1 CAW          0.0000     0.0000     0.0000 c3         1 VU3       0.054800
      2 CAO          1.5070     0.0000     0.0000 cc         1 VU3      -0.255300
      3 NAQ          2.2930     0.0000     1.1210 na         1 VU3       0.361600
      4 CAX          3.6220    -0.0010     0.7610 ca         1 VU3      -0.227200
      5 CAN          4.8090    -0.0000     1.4850 ca         1 VU3      -0.104000
      6 CAJ          6.0160    -0.0000     0.8200 ca         1 VU3      -0.086000
      7 CAF          6.0600     0.0010    -0.5680 ca         1 VU3      -0.134000
      8 CAI          4.9050     0.0010    -1.2980 ca         1 VU3      -0.043000
      9 CAM          3.6710     0.0010    -0.6450 ca         1 VU3      -0.102800
     10 CAP         -0.5100     1.4370    -0.1260 c3         1 VU3       0.152800
     11 CAV         -7.0880     1.8590    -2.1700 ca         1 VU3      -0.103000
     12 CAD         -8.4490     1.6460    -2.0620 ca         1 VU3      -0.099000
     13 CAC         -8.9560     0.9480    -0.9820 ca         1 VU3      -0.107000
     14 CAR         -8.1020     0.4620    -0.0100 ca         1 VU3      -0.099000
     15 CAE         -6.7400     0.6750    -0.1170 ca         1 VU3      -0.103000
     16 CAU         -6.2330     1.3730    -1.1980 ca         1 VU3      -0.086300
     17 CAS         -4.6290     2.0600    -1.0900 c3         1 VU3       0.025600
     18 CAT         -4.0280     0.6580    -1.2200 c3         1 VU3      -0.039900
     19 CAK         -4.0280     2.7520     0.1370 c3         1 VU3      -0.039900
     20 CAG         -2.5050     2.8020    -0.0060 c3         1 VU3       0.152800
     21 CAL         -2.5050     0.7680    -1.3240 c3         1 VU3       0.152800
     22 C17          2.2780    -0.0050    -1.0990 cd         1 VU3      -0.163200
     23 N1          -1.9790     1.4370    -0.1260 n3         1 VU3      -0.545600
     24 HAW1        -0.3610    -0.5860    -0.8370 hc         1 VU3       0.026700
     25 HAW2        -0.3610    -0.4310     0.9260 hc         1 VU3       0.026700
     26 HAP1        -0.1480     1.8680    -1.0520 h1         1 VU3       0.013200
     27 HAP2        -0.1490     2.0230     0.7110 h1         1 VU3       0.013200
     28 HAQ          1.9520    -0.0000     2.0620 hn         1 VU3       0.113700
     29 H17          1.9400    -0.1790    -2.1140 ha         1 VU3       0.130000
     30 HAN          4.7860    -0.0010     2.5680 ha         1 VU3       0.098000
     31 HAJ          6.9400    -0.0010     1.3850 ha         1 VU3       0.099000
     32 HAF          7.0170     0.0010    -1.0760 ha         1 VU3       0.102000
     33 HAI          4.9470     0.0020    -2.3810 ha         1 VU3       0.100000
     34 HAD         -9.1190     2.0270    -2.8240 ha         1 VU3       0.102000
     35 HAC        -10.0230     0.7820    -0.8980 ha         1 VU3       0.102000
     36 HAR         -8.5000    -0.0850     0.8360 ha         1 VU3       0.102000
     37 HAE         -6.0710     0.2940     0.6450 ha         1 VU3       0.108500
     38 HAS         -4.4750     2.7620    -1.9000 hc         1 VU3       0.029700
     39 HAT1        -4.2980     0.2380    -2.1810 hc         1 VU3       0.030200
     40 HAT2        -4.4070     0.0270    -0.4250 hc         1 VU3       0.030200
     41 HAK1        -4.0430     2.0700     0.9790 hc         1 VU3       0.030200
     42 HAK2        -4.6070     3.6370     0.3710 hc         1 VU3       0.030200
     43 HAL1        -2.0770    -0.2240    -1.3980 h1         1 VU3       0.010200
     44 HAL2        -2.2450     1.3460    -2.2020 h1         1 VU3       0.010200
     45 HAG1        -2.2460     3.3680    -0.8930 h1         1 VU3       0.010200
     46 HAG2        -2.0770     3.2770     0.8690 h1         1 VU3       0.010200
     47 HAV         -6.6910     2.4060    -3.0160 ha         1 VU3       0.108500
@<TRIPOS>BOND
     1     1     2 1   
     2     1    10 1   
     3     1    24 1   
     4     1    25 1   
     5     2     3 1   
     6     2    22 2   
     7     3     4 1   
     8     3    28 1   
     9     4     5 ar  
    10     4     9 ar  
    11     5     6 ar  
    12     5    30 1   
    13     6     7 ar  
    14     6    31 1   
    15     7     8 ar  
    16     7    32 1   
    17     8     9 ar  
    18     8    33 1   
    19     9    22 1   
    20    10    23 1   
    21    10    26 1   
    22    10    27 1   
    23    11    12 ar  
    24    11    16 ar  
    25    11    47 1   
    26    12    13 ar  
    27    12    34 1   
    28    13    14 ar  
    29    13    35 1   
    30    14    15 ar  
    31    14    36 1   
    32    15    16 ar  
    33    15    37 1   
    34    16    17 1   
    35    17    18 1   
    36    17    19 1   
    37    17    38 1   
    38    18    21 1   
    39    18    39 1   
    40    18    40 1   
    41    19    20 1   
    42    19    41 1   
    43    19    42 1   
    44    20    23 1   
    45    20    45 1   
    46    20    46 1   
    47    21    23 1   
    48    21    43 1   
    49    21    44 1   
    50    22    29 1   
@<TRIPOS>SUBSTRUCTURE
     1 VU3         1 TEMP              0 ****  ****    0 ROOT
