@<TRIPOS>MOLECULE
VUP
   30    32     1     0     0
SMALL
bcc


@<TRIPOS>ATOM
      1 C           0.0110    0.0640    0.0120 ca        1 VUP      0.426600
      2 C1          1.4110   -0.0180    0.0060 ca        1 VUP     -0.246300
      3 C2          2.0580    0.0890    1.2460 ca        1 VUP     -0.041200
      4 N2          3.3960    0.0430    1.6450 na        1 VUP     -0.131300
      5 C6          4.5200   -0.0940    0.7600 c3        1 VUP      0.043300
      6 C7          5.0900    1.2130    0.2300 c3        1 VUP     -0.118100
      7 C5          3.3840    0.2170    3.0560 cc        1 VUP      0.369800
      8 N1          2.1310    0.3480    3.5610 nd        1 VUP     -0.556100
      9 C3          1.2770    0.2730    2.4570 ca        1 VUP     -0.060900
     10 C4         -0.1330    0.3400    2.3270 ca        1 VUP      0.472200
     11 N          -0.7400    0.2390    1.1490 nb        1 VUP     -0.681000
     12 C8          4.5800    0.2450    3.8770 cc        1 VUP      0.184700
     13 C9          4.6480   -0.0870    5.3450 cc        1 VUP      0.498900
     14 N5          3.6320   -0.5970    6.1070 nh        1 VUP     -0.912500
     15 N4          5.9520    0.1200    5.6960 nd        1 VUP     -0.434300
     16 O           6.5960    0.5110    4.5890 os        1 VUP      0.128600
     17 C10        -0.7160   -0.0430   -1.2900 c3        1 VUP     -0.148400
     18 N3          5.8250    0.6000    3.5190 nd        1 VUP     -0.319300
     19 H51N        3.7680   -0.5970    7.0930 hn        1 VUP      0.439300
     20 H52N        2.7060   -0.4080    5.7960 hn        1 VUP      0.439300
     21 HA         -0.7790    0.4800    3.2130 h4        1 VUP      0.036100
     22 H61C        4.1760   -0.7220   -0.1140 h1        1 VUP      0.067700
     23 H62C        5.3290   -0.6670    1.2960 h1        1 VUP      0.067700
     24 H71C        4.3250    1.7780   -0.3550 hc        1 VUP      0.053700
     25 H72C        5.4570    1.8650    1.0580 hc        1 VUP      0.053700
     26 H73C        5.9490    0.9730   -0.4420 hc        1 VUP      0.053700
     27 H1          1.9720   -0.1560   -0.9260 ha        1 VUP      0.148000
     28 H101        0.0060   -0.1870   -2.1290 hc        1 VUP      0.054700
     29 H102       -1.4230   -0.9100   -1.2710 hc        1 VUP      0.054700
     30 H103       -1.3080    0.8860   -1.4820 hc        1 VUP      0.054700
@<TRIPOS>BOND
     1    1    2 ar  
     2    1   11 ar  
     3    1   17 1   
     4    2    3 ar  
     5    2   27 1   
     6    3    4 1   
     7    3    9 ar  
     8    4    5 1   
     9    4    7 1   
    10    5    6 1   
    11    5   22 1   
    12    5   23 1   
    13    6   24 1   
    14    6   25 1   
    15    6   26 1   
    16    7    8 2   
    17    7   12 1   
    18    8    9 1   
    19    9   10 ar  
    20   10   11 ar  
    21   10   21 1   
    22   12   13 1   
    23   12   18 2   
    24   13   14 1   
    25   13   15 2   
    26   14   19 1   
    27   14   20 1   
    28   15   16 1   
    29   16   18 1   
    30   17   28 1   
    31   17   29 1   
    32   17   30 1   
@<TRIPOS>SUBSTRUCTURE
     1 VUP         1 TEMP              0 ****  ****    0 ROOT
