@<TRIPOS>MOLECULE
molecule
   28    27     1     0     0
SMALL
bcc


@<TRIPOS>ATOM
      1 C            0.0000     0.0000     0.0000 c          1 VUR       0.868600
      2 N            1.9960     1.1990    -0.6920 nz         1 VUR      -0.792600
      3 C1           6.1960    -0.2690     4.0760 c2         1 VUR       0.648200
      4 C2           7.6980    -0.3920     4.0770 c3         1 VUR      -0.003600
      5 S3           8.3030    -0.3930     5.7870 sh         1 VUR      -0.314900
      6 CA           1.5070     0.0000     0.0000 c3         1 VUR      -0.018500
      7 CB           2.0180     0.0000     1.4420 c3         1 VUR      -0.087400
      8 CD           4.0520    -0.1270     2.8870 c3         1 VUR       0.235800
      9 NE           5.5120    -0.2460     2.8890 nu         1 VUR      -0.938200
     10 CG           3.5420    -0.1250     1.4440 c3         1 VUR      -0.115400
     11 NH           5.5530    -0.1830     5.1940 n2         1 VUR      -0.850100
     12 OA1         -0.6710    -1.1450     0.2010 o          1 VUR      -0.772300
     13 OA2         -0.6040     1.0310    -0.1770 o          1 VUR      -0.772300
     14 HN           1.4050     1.3970    -1.4760 hn         1 VUR       0.439800
     15 HNA          2.9320     1.0420    -1.0110 hn         1 VUR       0.439800
     16 H2           8.1290     0.4450     3.5420 h1         1 VUR       0.065200
     17 H2A          7.9850    -1.3170     3.5920 h1         1 VUR       0.065200
     18 HS3          9.6260    -0.5020     5.7890 hs         1 VUR       0.180800
     19 HA           1.8690    -0.8840    -0.5110 hx         1 VUR       0.104700
     20 HB           1.5860    -0.8370     1.9780 hc         1 VUR       0.089700
     21 HBA          1.7310     0.9250     1.9270 hc         1 VUR       0.089700
     22 HD           3.7640     0.7980     3.3720 h1         1 VUR       0.051700
     23 HDA          3.6200    -0.9640     3.4210 h1         1 VUR       0.051700
     24 HNE          6.0100    -0.3120     2.0230 hn         1 VUR       0.423800
     25 HG           3.8290    -1.0500     0.9590 hc         1 VUR       0.036200
     26 HGA          3.9740     0.7120     0.9090 hc         1 VUR       0.036200
     27 HNH          4.5550    -0.1000     5.1930 hn         1 VUR       0.398400
     28 HN3          1.9730     1.9790    -0.0650 hn         1 VUR       0.439800
@<TRIPOS>BOND
     1    13     1 1
     2     6     1 1
     3     1    12 1
     4     2     6 1
     5     2    14 1
     6     2    15 1
     7    11     3 2
     8     3     9 1
     9     3     4 1
    10     4     5 1
    11     4    16 1
    12     4    17 1
    13     5    18 1
    14     6     7 1
    15     6    19 1
    16    10     7 1
    17     7    20 1
    18     7    21 1
    19     8    10 1
    20     8     9 1
    21     8    22 1
    22     8    23 1
    23     9    24 1
    24    10    25 1
    25    10    26 1
    26    11    27 1
    27    28     2 1
@<TRIPOS>SUBSTRUCTURE
     1 VUR         1 TEMP              0 ****  ****    0 ROOT
