@<TRIPOS>MOLECULE
VVA
   73    72     1     0     0
SMALL
bcc


@<TRIPOS>ATOM
      1 O1P          0.0000     0.0000     0.0000 o          1 VVA      -0.634000
      2 P            1.4800     0.0000     0.0000 p5         1 VVA       0.923800
      3 O2P          2.0160     0.0000     1.5180 o          1 VVA      -0.634000
      4 O4P          2.0170     1.3140    -0.7590 os         1 VVA      -0.526200
      5 C4           1.6280     2.6390    -0.3900 c3         1 VVA       0.300400
      6 C5           2.3160     3.6480    -1.3110 c3         1 VVA      -0.079200
      7 N6           1.8300     3.4690    -2.6850 nz         1 VVA       0.089400
      8 O3P          2.0170    -1.3150    -0.7590 os         1 VVA      -0.508200
      9 C1           1.6290    -2.6390    -0.3900 c3         1 VVA       0.308400
     10 C2           2.3180    -3.6480    -1.3100 c3         1 VVA       0.206400
     11 O2           3.7530    -3.5950    -1.0980 os         1 VVA      -0.392900
     12 C31          4.5090    -4.4250    -1.8340 c          1 VVA       0.689100
     13 O31          3.9890    -5.1700    -2.6300 o          1 VVA      -0.608000
     14 C32          6.0080    -4.4260    -1.6680 c3         1 VVA      -0.071400
     15 C33          6.6250    -5.4550    -2.6170 c3         1 VVA      -0.020400
     16 C34          8.1450    -5.4560    -2.4480 c3         1 VVA      -0.030400
     17 C35          8.7630    -6.4860    -3.3980 c3         1 VVA      -0.027400
     18 C36         10.2840    -6.4870    -3.2290 c3         1 VVA      -0.029400
     19 C37         10.9010    -7.5160    -4.1780 c3         1 VVA      -0.029400
     20 C38         12.4220    -7.5170    -4.0090 c3         1 VVA      -0.029400
     21 C39         13.0390    -8.5460    -4.9580 c3         1 VVA      -0.029400
     22 H2           1.9200     2.8290     0.6360 h1         1 VVA       0.021200
     23 H3           0.5530     2.7390    -0.4840 h1         1 VVA       0.021200
     24 H4           2.0920     4.6540    -0.9770 hx         1 VVA       0.070700
     25 H5           3.3880     3.4890    -1.2840 hx         1 VVA       0.070700
     26 H6           0.8300     3.4360    -2.6830 hn         1 VVA       0.216133
     27 H7           2.1380     4.2350    -3.2500 hn         1 VVA       0.216133
     28 H9           0.5550    -2.7400    -0.4840 h1         1 VVA      -0.001300
     29 H10          1.9210    -2.8280     0.6360 h1         1 VVA      -0.001300
     30 H11          1.9570    -4.6450    -1.0880 h1         1 VVA       0.003700
     31 H12          2.0970    -3.4060    -2.3430 h1         1 VVA       0.003700
     32 H13          6.3980    -3.4420    -1.8990 hc         1 VVA       0.033700
     33 H14          6.2570    -4.6820    -0.6460 hc         1 VVA       0.033700
     34 H15          6.2350    -6.4390    -2.3860 hc         1 VVA       0.028200
     35 H16          6.3750    -5.1980    -3.6400 hc         1 VVA       0.028200
     36 H17          8.3950    -5.7130    -1.4260 hc         1 VVA       0.012200
     37 H18          8.5350    -4.4720    -2.6790 hc         1 VVA       0.012200
     38 H19          8.3730    -7.4700    -3.1670 hc         1 VVA       0.016200
     39 H20          8.5140    -6.2290    -4.4200 hc         1 VVA       0.016200
     40 H21         10.5330    -6.7430    -2.2060 hc         1 VVA       0.013700
     41 H22         10.6740    -5.5030    -3.4590 hc         1 VVA       0.013700
     42 H23         10.5100    -8.5000    -3.9470 hc         1 VVA       0.014700
     43 H24         10.6510    -7.2590    -5.2000 hc         1 VVA       0.014700
     44 H25         12.8120    -6.5340    -4.2400 hc         1 VVA       0.014200
     45 H26         12.6720    -7.7740    -2.9870 hc         1 VVA       0.014200
     46 H27         12.6490    -9.5300    -4.7270 hc         1 VVA       0.015200
     47 H28         12.7900    -8.2900    -5.9810 hc         1 VVA       0.015200
     48 C40         14.5600    -8.5480    -4.7890 c3         1 VVA      -0.029400
     49 C41         15.1770    -9.5770    -5.7390 c3         1 VVA      -0.029400
     50 C42         16.6980    -9.5780    -5.5710 c3         1 VVA      -0.029400
     51 C43         17.3150   -10.6070    -6.5190 c3         1 VVA      -0.029400
     52 C44         18.8360   -10.6090    -6.3510 c3         1 VVA      -0.029400
     53 C45         19.4540   -11.6380    -7.2990 c3         1 VVA      -0.029400
     54 C46         20.9740   -11.6390    -7.1310 c3         1 VVA      -0.028400
     55 C47         21.5910   -12.6680    -8.0800 c3         1 VVA       0.005900
     56 H8          14.8090    -8.8040    -3.7670 hc         1 VVA       0.014200
     57 H29         14.9500    -7.5640    -5.0200 hc         1 VVA       0.014200
     58 H30         14.7880   -10.5610    -5.5080 hc         1 VVA       0.014700
     59 H31         14.9280    -9.3210    -6.7610 hc         1 VVA       0.014700
     60 H32         17.0880    -8.5950    -5.8020 hc         1 VVA       0.014200
     61 H33         16.9480    -9.8340    -4.5480 hc         1 VVA       0.014200
     62 H34         16.9250   -11.5910    -6.2870 hc         1 VVA       0.014700
     63 H35         17.0650   -10.3510    -7.5410 hc         1 VVA       0.014700
     64 H36         19.0850   -10.8640    -5.3280 hc         1 VVA       0.014200
     65 H37         19.2250    -9.6250    -6.5820 hc         1 VVA       0.014200
     66 H38         19.0640   -12.6220    -7.0680 hc         1 VVA       0.014700
     67 H39         19.2040   -11.3820    -8.3220 hc         1 VVA       0.014700
     68 H40         21.3640   -10.6550    -7.3630 hc         1 VVA       0.011700
     69 H41         21.2240   -11.8950    -6.1090 hc         1 VVA       0.011700
     70 H42         21.3410   -12.4120    -9.1020 hc         1 VVA       0.000033
     71 H43         21.2020   -13.6520    -7.8480 hc         1 VVA       0.000033
     72 H44         22.6680   -12.6690    -7.9600 hc         1 VVA       0.000033
     73 H63          2.1930     2.6140    -3.0580 hn         1 VVA       0.216133
@<TRIPOS>BOND
     1     1     2 1   
     2     2     3 1   
     3     2     4 1   
     4     2     8 1   
     5     4     5 1   
     6     5     6 1   
     7     5    22 1   
     8     5    23 1   
     9     6     7 1   
    10     6    24 1   
    11     6    25 1   
    12     7    26 1   
    13     7    27 1   
    14     7    73 1   
    15     8     9 1   
    16     9    10 1   
    17     9    28 1   
    18     9    29 1   
    19    10    11 1   
    20    10    30 1   
    21    10    31 1   
    22    11    12 1   
    23    12    13 2   
    24    12    14 1   
    25    14    15 1   
    26    14    32 1   
    27    14    33 1   
    28    15    16 1   
    29    15    34 1   
    30    15    35 1   
    31    16    17 1   
    32    16    36 1   
    33    16    37 1   
    34    17    18 1   
    35    17    38 1   
    36    17    39 1   
    37    18    19 1   
    38    18    40 1   
    39    18    41 1   
    40    19    20 1   
    41    19    42 1   
    42    19    43 1   
    43    20    21 1   
    44    20    44 1   
    45    20    45 1   
    46    21    46 1   
    47    21    47 1   
    48    21    48 1   
    49    48    49 1   
    50    48    56 1   
    51    48    57 1   
    52    49    50 1   
    53    49    58 1   
    54    49    59 1   
    55    50    51 1   
    56    50    60 1   
    57    50    61 1   
    58    51    52 1   
    59    51    62 1   
    60    51    63 1   
    61    52    53 1   
    62    52    64 1   
    63    52    65 1   
    64    53    54 1   
    65    53    66 1   
    66    53    67 1   
    67    54    55 1   
    68    54    68 1   
    69    54    69 1   
    70    55    70 1   
    71    55    71 1   
    72    55    72 1   
@<TRIPOS>SUBSTRUCTURE
     1 VVA         1 TEMP              0 ****  ****    0 ROOT
