@<TRIPOS>MOLECULE
VVQ
   38    40     1     0     0
SMALL
bcc


@<TRIPOS>ATOM
      1 C16          0.0000     0.0000     0.0000 ca         1 VVQ      -0.430600
      2 C17          1.3820     0.0000     0.0000 ca         1 VVQ       0.524200
      3 N18          2.0310     0.0000     1.1550 nb         1 VVQ      -0.676000
      4 C19          1.3740     0.0000     2.3070 ca         1 VVQ       0.720900
      5 N21          2.0920    -0.0010     3.4910 nv         1 VVQ      -0.474500
      6 N20          0.0530     0.0000     2.3550 nb         1 VVQ      -0.700000
      7 C15         -0.6670     0.0000     1.2310 ca         1 VVQ       0.530800
      8 C11         -2.1420     0.0010     1.2840 cc         1 VVQ      -0.331800
      9 N7          -2.9830     0.0010     0.1970 na         1 VVQ       0.472900
     10 C10         -2.8930    -0.0050     2.4190 cd         1 VVQ      -0.112000
     11 C9          -4.2520    -0.0040     2.0280 cd         1 VVQ      -0.338600
     12 C12         -5.4200    -0.0080     2.9220 c          1 VVQ       0.387700
     13 O13         -6.5420    -0.0050     2.4530 o          1 VVQ      -0.455100
     14 N14         -5.2460    -0.0150     4.2580 nz         1 VVQ       0.208600
     15 C8          -4.2720     0.0000     0.6330 cc         1 VVQ      -0.083300
     16 C1          -5.4780    -0.0000    -0.2180 ca         1 VVQ      -0.073000
     17 C6          -5.7560    -1.0950    -1.0390 ca         1 VVQ      -0.074000
     18 C5          -6.8860    -1.0880    -1.8320 ca         1 VVQ      -0.047600
     19 Cl          -7.2350    -2.4480    -2.8540 cl         1 VVQ       0.016600
     20 C4          -7.7420     0.0010    -1.8140 ca         1 VVQ      -0.056000
     21 C3          -7.4710     1.0880    -1.0030 ca         1 VVQ      -0.083000
     22 C2          -6.3490     1.0920    -0.2010 ca         1 VVQ      -0.044300
     23 C22         -6.0580     2.2750     0.6870 c3         1 VVQ       0.048200
     24 H16         -0.5540     0.0000    -0.9310 ha         1 VVQ       0.118000
     25 H17          1.9300    -0.0000    -0.9350 h4         1 VVQ      -0.006900
     26 H211         1.6130    -0.0850     4.3660 hn         1 VVQ       0.280300
     27 H212         3.0900     0.0650     3.4710 hn         1 VVQ       0.280300
     28 H7          -2.6940     0.0030    -0.7610 hn         1 VVQ       0.139700
     29 H10         -2.5210    -0.1360     3.4280 ha         1 VVQ       0.133000
     30 H141        -6.1380     0.0080     4.7100 hn         1 VVQ       0.241800
     31 H142        -4.7570    -0.8460     4.5260 hn         1 VVQ       0.241800
     32 H6          -5.0500    -1.9130    -1.1090 ha         1 VVQ       0.116000
     33 H4          -8.6270     0.0020    -2.4400 ha         1 VVQ       0.126000
     34 H3          -8.1460     1.9350    -0.9920 ha         1 VVQ       0.122000
     35 H221        -5.0130     2.2650     0.9720 hc         1 VVQ       0.013033
     36 H222        -6.6760     2.2200     1.5750 hc         1 VVQ       0.013033
     37 H223        -6.2770     3.1910     0.1510 hc         1 VVQ       0.013033
     38 H143        -4.7130     0.7880     4.5290 hn         1 VVQ       0.241800
@<TRIPOS>BOND
     1     1     2 ar  
     2     1     7 ar  
     3     1    24 1   
     4     2     3 ar  
     5     2    25 1   
     6     3     4 ar  
     7     4     5 1   
     8     4     6 ar  
     9     5    26 1   
    10     5    27 1   
    11     6     7 ar  
    12     7     8 1   
    13     8     9 1   
    14     8    10 2   
    15     9    15 1   
    16     9    28 1   
    17    10    11 1   
    18    10    29 1   
    19    11    12 1   
    20    11    15 2   
    21    12    13 2   
    22    12    14 1   
    23    14    30 1   
    24    14    31 1   
    25    14    38 1   
    26    15    16 1   
    27    16    17 ar  
    28    16    22 ar  
    29    17    18 ar  
    30    17    32 1   
    31    18    19 1   
    32    18    20 ar  
    33    20    21 ar  
    34    20    33 1   
    35    21    22 ar  
    36    21    34 1   
    37    22    23 1   
    38    23    35 1   
    39    23    36 1   
    40    23    37 1   
@<TRIPOS>SUBSTRUCTURE
     1 VVQ         1 TEMP              0 ****  ****    0 ROOT
