@<TRIPOS>MOLECULE
VVS
   57    59     1     0     0
SMALL
bcc


@<TRIPOS>ATOM
      1 C1         -0.0610   -0.1310   -0.0250 ca        1 VVS     -0.167300
      2 C2          1.3350   -0.1260   -0.0390 ca        1 VVS     -0.072000
      3 C3         -0.7300   -0.0740    1.2090 ca        1 VVS      0.161100
      4 C4         -0.8060   -0.1430   -1.3290 c3        1 VVS      0.092600
      5 C5          2.0880   -0.0590    1.1420 ca        1 VVS     -0.094300
      6 C6          0.0050    0.0120    2.4060 ca        1 VVS     -0.167300
      7 O7         -2.1000   -0.0540    1.3330 oh        1 VVS     -0.505100
      8 N8         -1.4170   -1.3960   -1.6680 na        1 VVS     -0.212900
      9 C9          1.3990    0.0300    2.3570 ca        1 VVS     -0.072000
     10 C10         3.6040   -0.0470    1.0450 c3        1 VVS      0.009300
     11 C11        -0.7110    0.0690    3.7270 c3        1 VVS      0.092600
     12 C12        -2.7930   -1.6520   -1.7320 cc        1 VVS     -0.261100
     13 C13        -0.7710   -2.6080   -1.9600 cc        1 VVS      0.391400
     14 C14         4.2090   -0.1250    2.4540 c3        1 VVS     -0.065400
     15 C15         4.0530   -1.2330    0.2010 c3        1 VVS     -0.088600
     16 C16         4.0010    1.2550    0.3510 c3        1 VVS     -0.088600
     17 N17        -1.1130    1.3850    4.1300 na        1 VVS     -0.212900
     18 C18        -2.9210   -3.0100   -2.0750 cd        1 VVS      0.292200
     19 N19        -1.6600   -3.5910   -2.2130 nd        1 VVS     -0.666500
     20 C20         5.7060   -0.3500    2.6970 c3        1 VVS     -0.047000
     21 C21        -2.1920    2.1150    3.6240 cc        1 VVS     -0.261100
     22 C22        -0.4730    2.2120    5.0690 cc        1 VVS      0.391400
     23 C23         6.6100    0.4890    1.8130 c3        1 VVS     -0.089433
     24 C24         5.9700    0.0550    4.1530 c3        1 VVS     -0.089433
     25 C25         6.0820   -1.8210    2.5620 c3        1 VVS     -0.089433
     26 C26        -2.1730    3.3530    4.2910 cd        1 VVS      0.292200
     27 N27        -1.1020    3.3990    5.1850 nd        1 VVS     -0.666500
     28 H2          1.8490   -0.1610   -1.0140 ha        1 VVS      0.140500
     29 H41C       -1.6150    0.6450   -1.2960 h1        1 VVS      0.071200
     30 H42C       -0.0920    0.1340   -2.1610 h1        1 VVS      0.071200
     31 H7         -2.4910   -0.4250    0.5280 ho        1 VVS      0.430000
     32 H9          1.9390    0.1200    3.3130 ha        1 VVS      0.140500
     33 H111       -1.6390   -0.5740    3.6550 h1        1 VVS      0.071200
     34 H112       -0.0420   -0.3540    4.5310 h1        1 VVS      0.071200
     35 H12        -3.5410   -0.8800   -1.5680 h4        1 VVS      0.180000
     36 H13         0.3190   -2.7070   -1.9720 h5        1 VVS      0.059100
     37 H141        3.6870   -0.9650    2.9930 hc        1 VVS      0.041200
     38 H142        3.9370    0.8390    2.9680 hc        1 VVS      0.041200
     39 H151        3.5200   -1.2600   -0.7790 hc        1 VVS      0.039200
     40 H152        5.1460   -1.1590   -0.0150 hc        1 VVS      0.039200
     41 H153        3.8530   -2.1890    0.7410 hc        1 VVS      0.039200
     42 H161        3.9230    2.1150    1.0600 hc        1 VVS      0.039200
     43 H162        3.3290    1.4550   -0.5190 hc        1 VVS      0.039200
     44 H163        5.0460    1.2000   -0.0330 hc        1 VVS      0.039200
     45 H18        -3.8330   -3.5860   -2.2280 h4        1 VVS      0.042600
     46 H21        -2.8510    1.7070    2.8590 h4        1 VVS      0.180000
     47 H22         0.4120    1.8970    5.6290 h5        1 VVS      0.059100
     48 H231        6.6190    0.1040    0.7660 hc        1 VVS      0.035478
     49 H232        6.2710    1.5530    1.8100 hc        1 VVS      0.035478
     50 H233        7.6580    0.4540    2.2000 hc        1 VVS      0.035478
     51 H241        7.0290   -0.1660    4.4280 hc        1 VVS      0.035478
     52 H242        5.7890    1.1470    4.2920 hc        1 VVS      0.035478
     53 H243        5.2990   -0.5120    4.8410 hc        1 VVS      0.035478
     54 H251        5.3970   -2.4570    3.1720 hc        1 VVS      0.035478
     55 H252        7.1270   -1.9780    2.9250 hc        1 VVS      0.035478
     56 H253        6.0320   -2.1610    1.5010 hc        1 VVS      0.035478
     57 H26        -2.8570    4.1920    4.1810 h4        1 VVS      0.042600
@<TRIPOS>BOND
     1    1    2 ar  
     2    1    3 ar  
     3    1    4 1   
     4    2    5 ar  
     5    2   28 1   
     6    3    6 ar  
     7    3    7 1   
     8    4    8 1   
     9    4   29 1   
    10    4   30 1   
    11    5    9 ar  
    12    5   10 1   
    13    6    9 ar  
    14    6   11 1   
    15    7   31 1   
    16    8   12 1   
    17    8   13 1   
    18    9   32 1   
    19   10   14 1   
    20   10   15 1   
    21   10   16 1   
    22   11   17 1   
    23   11   33 1   
    24   11   34 1   
    25   12   18 2   
    26   12   35 1   
    27   13   19 2   
    28   13   36 1   
    29   14   20 1   
    30   14   37 1   
    31   14   38 1   
    32   15   39 1   
    33   15   40 1   
    34   15   41 1   
    35   16   42 1   
    36   16   43 1   
    37   16   44 1   
    38   17   21 1   
    39   17   22 1   
    40   18   19 1   
    41   18   45 1   
    42   20   23 1   
    43   20   24 1   
    44   20   25 1   
    45   21   26 2   
    46   21   46 1   
    47   22   27 2   
    48   22   47 1   
    49   23   48 1   
    50   23   49 1   
    51   23   50 1   
    52   24   51 1   
    53   24   52 1   
    54   24   53 1   
    55   25   54 1   
    56   25   55 1   
    57   25   56 1   
    58   26   27 1   
    59   26   57 1   
@<TRIPOS>SUBSTRUCTURE
     1 VVS         1 TEMP              0 ****  ****    0 ROOT
