@<TRIPOS>MOLECULE
molecule
   57    59     1     0     0
SMALL
bcc


@<TRIPOS>ATOM
      1 C1           0.0000     0.0000     0.0000 ca         1 VVS      -0.144300
      2 C2           1.3810     0.0000     0.0000 ca         1 VVS      -0.087000
      3 C3          -0.6930    -0.0000     1.2010 ca         1 VVS       0.143100
      4 C4          -0.7540     0.0070    -1.3060 c3         1 VVS       0.098600
      5 C5           2.0730     0.0000     1.1970 ca         1 VVS      -0.074300
      6 C6           0.0030    -0.0010     2.4010 ca         1 VVS      -0.144300
      7 O7          -2.0520    -0.0000     1.2030 oh         1 VVS      -0.522100
      8 N8          -1.2050    -1.3530    -1.6160 na         1 VVS      -0.184900
      9 C9           1.3850    -0.0020     2.3960 ca         1 VVS      -0.087000
     10 C10          3.5810    -0.0000     1.1950 c3         1 VVS      -0.019700
     11 C11         -0.7470    -0.0010     3.7080 c3         1 VVS       0.098600
     12 C12         -2.3950    -1.9170    -1.2440 cc         1 VVS      -0.273600
     13 C13         -0.5270    -2.2790    -2.3260 cc         1 VVS       0.393400
     14 C14          4.0930    -0.0010     2.6370 c3         1 VVS      -0.066400
     15 C15          4.0900    -1.2490     0.4730 c3         1 VVS      -0.097100
     16 C16          4.0890     1.2490     0.4740 c3         1 VVS      -0.097100
     17 N17         -1.1970     1.3590     4.0130 na         1 VVS      -0.184900
     18 C18         -2.4020    -3.1710    -1.7360 cd         1 VVS       0.306700
     19 N19         -1.2490    -3.3650    -2.3930 nd         1 VVS      -0.696500
     20 C20          5.5670    -0.4080     2.6540 c3         1 VVS      -0.070000
     21 C21         -2.3880     1.9220     3.6410 cc         1 VVS      -0.273600
     22 C22         -0.5170     2.2900     4.7180 cc         1 VVS       0.393400
     23 C23          6.3070     0.3080     1.5220 c3         1 VVS      -0.092767
     24 C24          6.1880    -0.0170     3.9970 c3         1 VVS      -0.092767
     25 C25          5.6810    -1.9220     2.4610 c3         1 VVS      -0.092767
     26 C26         -2.3930     3.1780     4.1270 cd         1 VVS       0.306700
     27 N27         -1.2380     3.3760     4.7800 nd         1 VVS      -0.696500
     28 H2           1.9230     0.0010    -0.9380 ha         1 VVS       0.142500
     29 H41C        -1.6120     0.6630    -1.2240 h1         1 VVS       0.070450
     30 H42C        -0.1030     0.3600    -2.0960 h1         1 VVS       0.070450
     31 H7          -2.3670     0.8380     0.9070 ho         1 VVS       0.424000
     32 H9           1.9290    -0.0020     3.3330 ha         1 VVS       0.142500
     33 H111        -1.6050    -0.6570     3.6320 h1         1 VVS       0.070450
     34 H112        -0.0940    -0.3500     4.4990 h1         1 VVS       0.070450
     35 H12         -3.1790    -1.4460    -0.6640 h4         1 VVS       0.175000
     36 H13          0.4530    -2.1440    -2.7660 h5         1 VVS       0.061100
     37 H141         3.5170    -0.7050     3.2250 hc         1 VVS       0.046200
     38 H142         3.9880     0.9920     3.0580 hc         1 VVS       0.046200
     39 H151         3.6250    -2.1290     0.9010 hc         1 VVS       0.044867
     40 H152         5.1650    -1.3180     0.5850 hc         1 VVS       0.044867
     41 H153         3.8400    -1.1850    -0.5790 hc         1 VVS       0.044867
     42 H161         3.2660     1.7280    -0.0420 hc         1 VVS       0.044867
     43 H162         4.5110     1.9360     1.1970 hc         1 VVS       0.044867
     44 H163         4.8500     0.9670    -0.2430 hc         1 VVS       0.044867
     45 H18         -3.2000    -3.8950    -1.6220 h4         1 VVS       0.040100
     46 H21         -3.1750     1.4500     3.0650 h4         1 VVS       0.175000
     47 H22          0.4650     2.1580     5.1560 h5         1 VVS       0.061100
     48 H231         5.8220     0.0890     0.5790 hc         1 VVS       0.038811
     49 H232         6.2890     1.3760     1.6990 hc         1 VVS       0.038811
     50 H233         7.3340    -0.0350     1.4880 hc         1 VVS       0.038811
     51 H241         5.6600    -0.5190     4.7990 hc         1 VVS       0.038811
     52 H242         6.1130     1.0550     4.1310 hc         1 VVS       0.038811
     53 H243         7.2310    -0.3110     4.0120 hc         1 VVS       0.038811
     54 H251         6.1490    -2.1300     1.5070 hc         1 VVS       0.038811
     55 H252         6.2820    -2.3430     3.2580 hc         1 VVS       0.038811
     56 H253         4.6920    -2.3640     2.4830 hc         1 VVS       0.038811
     57 H26         -3.1910     3.9020     4.0120 h4         1 VVS       0.040100
@<TRIPOS>BOND
     1     1     2 ar
     2     1     3 ar
     3     1     4 1
     4     2     5 ar
     5     3     6 ar
     6     3     7 1
     7     4     8 1
     8     5     9 ar
     9     5    10 1
    10     6     9 ar
    11     6    11 1
    12     8    12 1
    13     8    13 1
    14    10    14 1
    15    10    15 1
    16    10    16 1
    17    11    17 1
    18    12    18 2
    19    13    19 2
    20    14    20 1
    21    17    21 1
    22    17    22 1
    23    18    19 1
    24    20    23 1
    25    20    24 1
    26    20    25 1
    27    21    26 2
    28    22    27 2
    29    26    27 1
    30     2    28 1
    31     4    29 1
    32     4    30 1
    33     7    31 1
    34     9    32 1
    35    11    33 1
    36    11    34 1
    37    12    35 1
    38    13    36 1
    39    14    37 1
    40    14    38 1
    41    15    39 1
    42    15    40 1
    43    15    41 1
    44    16    42 1
    45    16    43 1
    46    16    44 1
    47    18    45 1
    48    21    46 1
    49    22    47 1
    50    23    48 1
    51    23    49 1
    52    23    50 1
    53    24    51 1
    54    24    52 1
    55    24    53 1
    56    25    54 1
    57    25    55 1
    58    25    56 1
    59    26    57 1
@<TRIPOS>SUBSTRUCTURE
     1 VVS         1 TEMP              0 ****  ****    0 ROOT
