@<TRIPOS>MOLECULE
molecule
   29    31     1     0     0
SMALL
bcc


@<TRIPOS>ATOM
      1 Cl7          0.0000     0.0000     0.0000 cl         1 VVT      -0.135000
      2 C3           1.7370     0.0000     0.0000 ca         1 VVT       0.441300
      3 N2           2.3950     0.0000     1.1440 nb         1 VVT      -0.301000
      4 N1           3.6770    -0.0060     1.2040 nb         1 VVT      -0.289000
      5 C4           2.4280    -0.0070    -1.2020 ca         1 VVT      -0.190300
      6 C5           3.8250    -0.0080    -1.1530 cp         1 VVT      -0.105300
      7 C8           4.6350    -0.0160    -2.3950 cp         1 VVT      -0.020000
      8 C18          4.3810    -0.9400    -3.4130 ca         1 VVT      -0.234800
      9 C17          5.1600    -0.9110    -4.5520 ca         1 VVT       0.419200
     10 N16          6.1320    -0.0290    -4.6860 nb         1 VVT      -0.683000
     11 C15          6.4030     0.8600    -3.7500 ca         1 VVT       0.419200
     12 C14          5.6700     0.9050    -2.5820 ca         1 VVT      -0.234800
     13 C            4.4350    -0.0130     0.1150 cq         1 VVT       0.425800
     14 C6           5.9120    -0.0190     0.2340 cq         1 VVT      -0.162500
     15 C13          6.5340     0.6730     1.2720 ca         1 VVT      -0.094500
     16 C12          7.9100     0.6640     1.3770 ca         1 VVT      -0.136000
     17 C11          8.6720    -0.0300     0.4550 ca         1 VVT      -0.110000
     18 C10          8.0600    -0.7200    -0.5780 ca         1 VVT      -0.136000
     19 C9           6.6850    -0.7220    -0.6900 ca         1 VVT      -0.094500
     20 H1           1.9180     0.2550    -2.1210 ha         1 VVT       0.165000
     21 H2           3.5850    -1.6680    -3.3100 ha         1 VVT       0.149500
     22 H3           4.9720    -1.6220    -5.3470 h4         1 VVT       0.029600
     23 H4           7.2090     1.5680    -3.9030 h4         1 VVT       0.029600
     24 H5           5.8990     1.6380    -1.8170 ha         1 VVT       0.149500
     25 H6           5.9380     1.2170     1.9950 ha         1 VVT       0.146000
     26 H7           8.3940     1.2020     2.1830 ha         1 VVT       0.136500
     27 H8           9.7520    -0.0330     0.5400 ha         1 VVT       0.133000
     28 H9           8.6620    -1.2640    -1.2960 ha         1 VVT       0.136500
     29 H10          6.2070    -1.2620    -1.4980 ha         1 VVT       0.146000
@<TRIPOS>BOND
     1    18    17 ar
     2    18    19 ar
     3    17    16 ar
     4    19    14 1
     5    16    15 ar
     6    14    15 2
     7    14    13 1
     8     4    13 1
     9     4     3 ar
    10    13     6 2
    11     3     2 ar
    12    12    11 ar
    13    12     7 ar
    14    11    10 ar
    15     6     7 1
    16     6     5 ar
    17     7     8 ar
    18     2     5 ar
    19     2     1 1
    20    10     9 ar
    21     8     9 ar
    22     5    20 1
    23     8    21 1
    24     9    22 1
    25    11    23 1
    26    12    24 1
    27    15    25 1
    28    16    26 1
    29    17    27 1
    30    18    28 1
    31    19    29 1
@<TRIPOS>SUBSTRUCTURE
     1 VVT         1 TEMP              0 ****  ****    0 ROOT
