@<TRIPOS>MOLECULE
VVV
   33    34     1     0     0
SMALL
bcc


@<TRIPOS>ATOM
      1 C1           0.0000     0.0000     0.0000 ca         1 VVV       0.092100
      2 C2           1.4040     0.0000     0.0000 ca         1 VVV      -0.069800
      3 C3           2.1040     0.0000     1.2210 ca         1 VVV      -0.122400
      4 C4           1.3960     0.0000     2.4210 ca         1 VVV       0.140100
      5 C5           0.0140     0.0010     2.4080 ca         1 VVV      -0.266000
      6 C6          -0.6840     0.0070     1.2050 ca         1 VVV       0.134100
      7 C7           2.1600    -0.0020    -1.2510 cc         1 VVV       0.007600
      8 C8           3.5150    -0.0030    -1.1910 cd         1 VVV      -0.217200
      9 C9           4.1720    -0.0020     0.0570 c          1 VVV       0.589700
     10 N10          3.4870    -0.0020     1.2140 ns         1 VVV       0.052900
     11 O11         -0.6830    -0.0000    -1.1750 os         1 VVV      -0.317900
     12 C12         -1.1420     1.2640    -1.6590 c3         1 VVV       0.242700
     13 O13         -2.0440     0.0070     1.2110 os         1 VVV      -0.292900
     14 C14         -2.6870     0.0020     2.4870 c3         1 VVV       0.241700
     15 C15          1.4480    -0.0020    -2.5790 c3         1 VVV       0.028100
     16 O16          5.3900    -0.0040     0.0880 o          1 VVV      -0.697500
     17 O17          2.0650    -0.0000     3.6060 os         1 VVV      -0.313900
     18 C18          1.2750     0.0010     4.7970 c3         1 VVV       0.252700
     19 H5          -0.5310     0.0070     3.3440 ha         1 VVV       0.141000
     20 H8           4.0960    -0.0030    -2.1060 ha         1 VVV       0.138000
     21 HN10         3.9850    -0.0010     2.0820 hn         1 VVV       0.184500
     22 H12         -0.3980     2.0230    -1.4490 h1         1 VVV      -0.004633
     23 H12A        -1.3060     1.2040    -2.7280 h1         1 VVV      -0.004633
     24 H12B        -2.0710     1.5240    -1.1650 h1         1 VVV      -0.004633
     25 H14         -2.3930    -0.8840     3.0370 h1         1 VVV      -0.002633
     26 H14A        -2.3950     0.8850     3.0420 h1         1 VVV      -0.002633
     27 H14B        -3.7620     0.0010     2.3500 h1         1 VVV      -0.002633
     28 H15          2.1530    -0.2420    -3.3660 hc         1 VVV       0.024700
     29 H15A         1.0230     0.9770    -2.7620 hc         1 VVV       0.024700
     30 H15B         0.6570    -0.7420    -2.5650 hc         1 VVV       0.024700
     31 H18          0.6510     0.8870     4.8150 h1         1 VVV      -0.000633
     32 H18A         1.9260     0.0000     5.6620 h1         1 VVV      -0.000633
     33 H18B         0.6480    -0.8820     4.8150 h1         1 VVV      -0.000633
@<TRIPOS>BOND
     1     1     2 ar  
     2     1     6 ar  
     3     1    11 1   
     4     2     3 ar  
     5     2     7 1   
     6     3     4 ar  
     7     3    10 1   
     8     4     5 ar  
     9     4    17 1   
    10     5     6 ar  
    11     5    19 1   
    12     6    13 1   
    13     7     8 2   
    14     7    15 1   
    15     8     9 1   
    16     8    20 1   
    17     9    10 1   
    18     9    16 2   
    19    10    21 1   
    20    11    12 1   
    21    12    22 1   
    22    12    23 1   
    23    12    24 1   
    24    13    14 1   
    25    14    25 1   
    26    14    26 1   
    27    14    27 1   
    28    15    28 1   
    29    15    29 1   
    30    15    30 1   
    31    17    18 1   
    32    18    31 1   
    33    18    32 1   
    34    18    33 1   
@<TRIPOS>SUBSTRUCTURE
     1 VVV         1 TEMP              0 ****  ****    0 ROOT
