@<TRIPOS>MOLECULE
molecule
   33    34     1     0     0
SMALL
bcc


@<TRIPOS>ATOM
      1 C1           0.0000     0.0000     0.0000 ca         1 VVV       0.092100
      2 C2           1.4040     0.0000     0.0000 ca         1 VVV      -0.077800
      3 C3           2.1040     0.0000     1.2210 ca         1 VVV       0.045600
      4 C4           1.3960     0.0000     2.4210 ca         1 VVV       0.124100
      5 C5           0.0140     0.0010     2.4080 ca         1 VVV      -0.263000
      6 C6          -0.6840     0.0070     1.2050 ca         1 VVV       0.123100
      7 C7           2.1600    -0.0020    -1.2510 cc         1 VVV       0.012600
      8 C8           3.5150    -0.0030    -1.1910 cd         1 VVV      -0.236200
      9 C9           4.1720    -0.0020     0.0570 c          1 VVV       0.693700
     10 N10          3.4870    -0.0020     1.2140 ns         1 VVV      -0.420100
     11 O11         -0.6830    -0.0000    -1.1750 os         1 VVV      -0.334900
     12 C12         -1.1420     1.2640    -1.6590 c3         1 VVV       0.129700
     13 O13         -2.0440     0.0070     1.2110 os         1 VVV      -0.313900
     14 C14         -2.6870     0.0020     2.4870 c3         1 VVV       0.126700
     15 C15          1.4480    -0.0020    -2.5790 c3         1 VVV      -0.059900
     16 O16          5.3900    -0.0040     0.0880 o          1 VVV      -0.650500
     17 O17          2.0650    -0.0000     3.6060 os         1 VVV      -0.332900
     18 C18          1.2750     0.0010     4.7970 c3         1 VVV       0.132700
     19 H5          -0.5310     0.0070     3.3440 ha         1 VVV       0.148000
     20 H8           4.0960    -0.0030    -2.1060 ha         1 VVV       0.166000
     21 HN10         3.9850    -0.0010     2.0820 hn         1 VVV       0.350500
     22 H12         -0.3980     2.0230    -1.4490 h1         1 VVV       0.038367
     23 H12A        -1.3060     1.2040    -2.7280 h1         1 VVV       0.038367
     24 H12B        -2.0710     1.5240    -1.1650 h1         1 VVV       0.038367
     25 H14         -2.3930    -0.8840     3.0370 h1         1 VVV       0.042033
     26 H14A        -2.3950     0.8850     3.0420 h1         1 VVV       0.042033
     27 H14B        -3.7620     0.0010     2.3500 h1         1 VVV       0.042033
     28 H15          2.1530    -0.2420    -3.3660 hc         1 VVV       0.057033
     29 H15A         1.0230     0.9770    -2.7620 hc         1 VVV       0.057033
     30 H15B         0.6570    -0.7420    -2.5650 hc         1 VVV       0.057033
     31 H18          0.6510     0.8870     4.8150 h1         1 VVV       0.044367
     32 H18A         1.9260     0.0000     5.6620 h1         1 VVV       0.044367
     33 H18B         0.6480    -0.8820     4.8150 h1         1 VVV       0.044367
@<TRIPOS>BOND
     1     6     1 ar
     2     1    11 1
     3     1     2 ar
     4     3     2 ar
     5     2     7 1
     6     4     3 ar
     7     3    10 1
     8    17     4 1
     9     5     4 ar
    10     5     6 ar
    11     5    19 1
    12    13     6 1
    13     7     8 2
    14     7    15 1
    15     9     8 1
    16     8    20 1
    17    10     9 1
    18     9    16 2
    19    10    21 1
    20    11    12 1
    21    12    22 1
    22    12    23 1
    23    12    24 1
    24    14    13 1
    25    14    25 1
    26    14    26 1
    27    14    27 1
    28    15    28 1
    29    15    29 1
    30    15    30 1
    31    18    17 1
    32    18    31 1
    33    18    32 1
    34    18    33 1
@<TRIPOS>SUBSTRUCTURE
     1 VVV         1 TEMP              0 ****  ****    0 ROOT
