@<TRIPOS>MOLECULE
VVX
   61    66     1     0     0
SMALL
bcc


@<TRIPOS>ATOM
      1 C2          1.1950    0.1110    1.0780 c3        1 VVX     -0.108600
      2 C1          2.5950   -0.2690    0.5910 c3        1 VVX      0.184500
      3 C           3.5460   -0.2340    1.7890 c3        1 VVX     -0.108600
      4 N           2.5890   -1.5060   -0.1920 n3        1 VVX     -0.734600
      5 C25         3.8170   -1.7030   -0.9470 c3        1 VVX      0.170800
      6 C24         3.7760   -2.9690   -1.8260 c3        1 VVX      0.167300
      7 N1          3.3940   -4.1600   -1.0790 n3        1 VVX     -0.724600
      8 C4          2.1770   -3.9620   -0.3040 c3        1 VVX      0.167300
      9 C3          2.2210   -2.6910    0.5660 c3        1 VVX      0.170800
     10 C5          3.3360   -5.3330   -1.9410 c3        1 VVX      0.147500
     11 C6          3.0700   -6.6020   -1.2280 cc        1 VVX      0.155700
     12 O           3.9100   -6.9650   -0.1740 os        1 VVX     -0.355800
     13 C8          3.4440   -8.2290    0.2500 cc        1 VVX      0.543900
     14 N2          2.3950   -8.6410   -0.4750 nd        1 VVX     -0.663000
     15 C7          2.1480   -7.6300   -1.4060 cd        1 VVX      0.229900
     16 C9          4.1460   -8.8490    1.3580 ca        1 VVX     -0.070500
     17 C15         3.7920  -10.1230    1.8100 ca        1 VVX     -0.179900
     18 C14         2.8070  -11.1430    1.4590 cc        1 VVX      0.369800
     19 N4          2.9340  -12.2050    2.2730 nd        1 VVX     -0.518100
     20 N3          3.8850  -11.9420    3.1860 na        1 VVX     -0.017100
     21 C13         4.5070  -10.7030    2.9240 ca        1 VVX     -0.068200
     22 C12         5.5480  -10.0230    3.5650 ca        1 VVX     -0.111000
     23 C11         5.8850   -8.7570    3.0850 cp        1 VVX     -0.007000
     24 C10         5.1920   -8.1810    1.9970 ca        1 VVX     -0.113000
     25 C16         6.9820   -8.0110    3.7030 cp        1 VVX     -0.001000
     26 C23         7.1160   -7.9260    5.0970 ca        1 VVX     -0.080800
     27 C22         6.3480   -8.4220    6.2180 cc        1 VVX     -0.191200
     28 C21         6.9870   -7.9940    7.3780 cd        1 VVX     -0.104100
     29 N5          8.1280   -7.2550    7.0520 na        1 VVX     -0.195400
     30 C20         8.2260   -7.1880    5.6600 ca        1 VVX     -0.048200
     31 C19         9.1730   -6.5550    4.8410 ca        1 VVX     -0.139000
     32 C18         9.0040   -6.6560    3.4700 ca        1 VVX     -0.115000
     33 C17         7.9310   -7.3660    2.9080 ca        1 VVX     -0.141000
     34 H21C        0.4510    0.0520    0.2480 hc        1 VVX      0.039033
     35 H22C        1.2220    1.1590    1.4600 hc        1 VVX      0.039033
     36 H23C        0.8610   -0.5590    1.9060 hc        1 VVX      0.039033
     37 H1          2.9280    0.5410   -0.1290 h1        1 VVX      0.050700
     38 HC1         3.2350   -0.9700    2.5680 hc        1 VVX      0.039033
     39 HC2         4.5930   -0.4660    1.4780 hc        1 VVX      0.039033
     40 HC3         3.5300    0.7870    2.2400 hc        1 VVX      0.039033
     41 H251        4.7230   -1.7640   -0.2760 h1        1 VVX      0.039200
     42 H252        3.9530   -0.8190   -1.6320 h1        1 VVX      0.039200
     43 H31C        2.9240   -2.8730    1.4310 h1        1 VVX      0.039200
     44 H32C        1.1890   -2.5290    0.9840 h1        1 VVX      0.039200
     45 H241        3.0820   -2.7820   -2.6980 h1        1 VVX      0.038950
     46 H242        4.8110   -3.1350   -2.2360 h1        1 VVX      0.038950
     47 H41C        2.0670   -4.8490    0.3820 h1        1 VVX      0.038950
     48 H42C        1.2640   -3.9160   -0.9670 h1        1 VVX      0.038950
     49 H51C        2.5440   -5.2350   -2.7440 h1        1 VVX      0.054200
     50 H52C        4.3420   -5.4220   -2.4500 h1        1 VVX      0.054200
     51 H7          1.3350   -7.7150   -2.1270 h4        1 VVX      0.052100
     52 H10         5.4810   -7.1740    1.6530 ha        1 VVX      0.159000
     53 H14         2.0580  -11.0880    0.6650 h4        1 VVX      0.075800
     54 H3          4.3250  -12.7010    3.6540 hn        1 VVX      0.313700
     55 H12         6.0870  -10.4640    4.4140 ha        1 VVX      0.152000
     56 H17         7.8430   -7.4190    1.8120 ha        1 VVX      0.137000
     57 H22         5.4350   -9.0060    6.1530 ha        1 VVX      0.161000
     58 H21         6.7160   -8.1630    8.4210 h4        1 VVX      0.166000
     59 H5          8.7380   -6.8200    7.6890 hn        1 VVX      0.298700
     60 H19        10.0160   -5.9980    5.2720 ha        1 VVX      0.133000
     61 H18         9.7270   -6.1700    2.7980 ha        1 VVX      0.132000
@<TRIPOS>BOND
     1    1    2 1
     2    1   34 1
     3    1   35 1
     4    1   36 1
     5    2    3 1
     6    2    4 1
     7    2   37 1
     8    3   38 1
     9    3   39 1
    10    3   40 1
    11    4    5 1
    12    4    9 1
    13    5    6 1
    14    5   41 1
    15    5   42 1
    16    6    7 1
    17    6   45 1
    18    6   46 1
    19    7    8 1
    20    7   10 1
    21    8    9 1
    22    8   47 1
    23    8   48 1
    24    9   43 1
    25    9   44 1
    26   10   11 1
    27   10   49 1
    28   10   50 1
    29   11   12 1
    30   11   15 2
    31   12   13 1
    32   13   14 2
    33   13   16 1
    34   14   15 1
    35   15   51 1
    36   16   17 ar
    37   16   24 ar
    38   17   18 1
    39   17   21 ar
    40   18   19 2
    41   18   53 1
    42   19   20 1
    43   20   21 1
    44   20   54 1
    45   21   22 ar
    46   22   23 ar
    47   22   55 1
    48   23   24 ar
    49   23   25 1
    50   24   52 1
    51   25   26 ar
    52   25   33 ar
    53   26   27 1
    54   26   30 ar
    55   27   28 2
    56   27   57 1
    57   28   29 1
    58   28   58 1
    59   29   30 1
    60   29   59 1
    61   30   31 ar
    62   31   32 ar
    63   31   60 1
    64   32   33 ar
    65   32   61 1
    66   33   56 1
@<TRIPOS>SUBSTRUCTURE
     1 VVX         1 TEMP              0 ****  ****    0 ROOT
