@<TRIPOS>MOLECULE
molecule
   43    46     1     0     0
SMALL
bcc


@<TRIPOS>ATOM
      1 C1           0.0000     0.0000     0.0000 cc         1 VWN       0.448600
      2 N2          -0.6950     0.0000    -1.1920 nh         1 VWN      -0.716400
      3 C3          -2.0060     0.6590    -1.3060 c3         1 VWN       0.203800
      4 C4          -1.9770     1.5850    -2.5260 c3         1 VWN       0.118900
      5 O5          -1.5390     0.8460    -3.6680 os         1 VWN      -0.420600
      6 C6          -0.2090     0.3320    -3.5570 c3         1 VWN       0.118900
      7 C7          -0.1440    -0.6530    -2.3900 c3         1 VWN       0.203800
      8 N8           1.3420     0.0000     0.0000 nc         1 VWN      -0.686300
      9 C9           2.0200     0.0000     1.1150 cd         1 VWN       0.515900
     10 N10          1.4070    -0.0010     2.3160 ns         1 VWN      -0.453400
     11 C11          0.0600    -0.0000     2.3930 c          1 VWN       0.701700
     12 C12         -0.6840     0.0050     1.2050 cd         1 VWN      -0.406200
     13 O13         -0.5010    -0.0010     3.4780 o          1 VWN      -0.654500
     14 C14          3.9750    -0.0010    -0.3800 cc         1 VWN       0.440800
     15 C15          3.5250    -0.0010     1.0590 c3         1 VWN      -0.114000
     16 N16          4.2060     1.1140    -1.1240 na         1 VWN      -0.145300
     17 N17          4.2020    -1.0670    -1.0900 nd         1 VWN      -0.590100
     18 C18          4.5900    -0.7090    -2.3400 ca         1 VWN       0.092400
     19 C19          4.5990     0.6960    -2.3800 ca         1 VWN      -0.086200
     20 C20          4.9630     1.3520    -3.5470 ca         1 VWN      -0.129000
     21 C21          5.3110     0.6190    -4.6610 ca         1 VWN      -0.113000
     22 C22          5.2990    -0.7670    -4.6240 ca         1 VWN      -0.148000
     23 C23          4.9500    -1.4310    -3.4810 ca         1 VWN      -0.069000
     24 C24          4.0670     2.5020    -0.6750 c3         1 VWN       0.038600
     25 H12         -1.7670     0.0060     1.2290 ha         1 VWN       0.169000
     26 H31C        -2.1990     1.2410    -0.4120 h1         1 VWN       0.065450
     27 H32C        -2.7790    -0.0880    -1.4350 h1         1 VWN       0.065450
     28 H71C        -0.7300    -1.5330    -2.6250 h1         1 VWN       0.065450
     29 H72C         0.8870    -0.9320    -2.2080 h1         1 VWN       0.065450
     30 H41C        -1.2920     2.4040    -2.3420 h1         1 VWN       0.055450
     31 H42C        -2.9720     1.9730    -2.7080 h1         1 VWN       0.055450
     32 H61C         0.0570    -0.1780    -4.4750 h1         1 VWN       0.055450
     33 H62C         0.4790     1.1490    -3.3780 h1         1 VWN       0.055450
     34 H10          1.9540    -0.0030     3.1540 hn         1 VWN       0.333500
     35 H151         3.9050     0.8830     1.5560 hc         1 VWN       0.086200
     36 H152         3.9040    -0.8860     1.5560 hc         1 VWN       0.086200
     37 H241         4.5300     3.1640    -1.3970 h1         1 VWN       0.052367
     38 H242         4.5510     2.6210     0.2870 h1         1 VWN       0.052367
     39 H243         3.0150     2.7480    -0.5830 h1         1 VWN       0.052367
     40 H23          4.9440    -2.5140    -3.4630 ha         1 VWN       0.142000
     41 H20          4.9740     2.4340    -3.5820 ha         1 VWN       0.125000
     42 H21          5.5900     1.1290    -5.5750 ha         1 VWN       0.133000
     43 H22          5.5750    -1.3300    -5.5080 ha         1 VWN       0.134000
@<TRIPOS>BOND
     1     1     2 1
     2     1     8 1
     3     1    12 2
     4     2     3 1
     5     2     7 1
     6     3     4 1
     7     4     5 1
     8     5     6 1
     9     6     7 1
    10     8     9 2
    11     9    10 1
    12     9    15 1
    13    10    11 1
    14    11    12 1
    15    11    13 2
    16    14    15 1
    17    14    16 1
    18    14    17 2
    19    16    19 1
    20    16    24 1
    21    17    18 1
    22    18    19 ar
    23    18    23 ar
    24    19    20 ar
    25    20    21 ar
    26    21    22 ar
    27    22    23 ar
    28    12    25 1
    29     3    26 1
    30     3    27 1
    31     7    28 1
    32     7    29 1
    33     4    30 1
    34     4    31 1
    35     6    32 1
    36     6    33 1
    37    10    34 1
    38    15    35 1
    39    15    36 1
    40    24    37 1
    41    24    38 1
    42    24    39 1
    43    23    40 1
    44    20    41 1
    45    21    42 1
    46    22    43 1
@<TRIPOS>SUBSTRUCTURE
     1 VWN         1 TEMP              0 ****  ****    0 ROOT
