@<TRIPOS>MOLECULE
VWS
   35    37     1     0     0
SMALL
bcc


@<TRIPOS>ATOM
      1 CL1         0.0220    0.0560    0.2230 cl        1 VWS     -0.097400
      2 C5          1.7210    0.0270    0.1750 ca        1 VWS      0.074400
      3 C4          2.4510    0.3280    1.3310 ca        1 VWS     -0.154000
      4 C3          3.8410    0.3040    1.2820 ca        1 VWS     -0.004500
      5 C6          2.3770   -0.2960   -1.0170 ca        1 VWS     -0.154000
      6 C2          3.7690   -0.3110   -1.0440 ca        1 VWS     -0.004500
      7 C1          4.5190   -0.0090    0.0980 ca        1 VWS     -0.368500
      8 S1          6.2140    0.0050    0.0490 sy        1 VWS      1.507200
      9 O1          6.6100    0.7610   -1.0750 o         1 VWS     -0.664800
     10 O2          6.6870    0.4890    1.2980 o         1 VWS     -0.664800
     11 N1          6.6240   -1.5450   -0.0770 nh        1 VWS     -0.777500
     12 C12         6.3770   -2.3960   -1.1800 ca        1 VWS      0.076600
     13 C7          6.6010   -1.9330   -2.5020 ca        1 VWS     -0.169000
     14 C8          6.3740   -2.7500   -3.6070 ca        1 VWS     -0.130000
     15 C11         5.9300   -3.7140   -0.9440 ca        1 VWS     -0.079000
     16 C10         5.7110   -4.5380   -2.0380 ca        1 VWS     -0.057800
     17 C13         5.2610   -5.9130   -2.1860 cc        1 VWS     -0.148400
     18 C15         4.9050   -6.8380   -1.0510 c         1 VWS      0.933800
     19 O4          5.0080   -6.3890    0.1260 o         1 VWS     -0.828300
     20 O5          4.5230   -8.0090   -1.3360 o         1 VWS     -0.828300
     21 C9          5.9320   -4.0440   -3.3620 ca        1 VWS      0.042100
     22 O3          5.6450   -5.0300   -4.2990 os        1 VWS     -0.236200
     23 C14         5.2360   -6.1660   -3.5380 cd        1 VWS      0.033900
     24 C16         4.8770   -7.3500   -4.3190 c3        1 VWS     -0.042900
     25 H1          1.9330    0.5740    2.2690 ha        1 VWS      0.150500
     26 H2          4.4250    0.5410    2.1910 ha        1 VWS      0.160500
     27 H3          1.8040   -0.5460   -1.9220 ha        1 VWS      0.150500
     28 H4          4.2940   -0.5720   -1.9820 ha        1 VWS      0.160500
     29 H5          6.9700   -2.0420    0.7150 hn        1 VWS      0.462800
     30 H6          6.9630   -0.9050   -2.6720 ha        1 VWS      0.151000
     31 H7          6.5450   -2.3850   -4.6270 ha        1 VWS      0.135000
     32 H8          5.7520   -4.1270    0.0650 ha        1 VWS      0.190000
     33 H10         5.7470   -7.6970   -4.9310 hc        1 VWS      0.060033
     34 H11         4.0270   -7.1250   -5.0090 hc        1 VWS      0.060033
     35 H12         4.5770   -8.1580   -3.5960 hc        1 VWS      0.060033
@<TRIPOS>BOND
     1    1    2 1   
     2    2    3 ar  
     3    2    5 ar  
     4    3    4 ar  
     5    3   25 1   
     6    4    7 ar  
     7    4   26 1   
     8    5    6 ar  
     9    5   27 1   
    10    6    7 ar  
    11    6   28 1   
    12    7    8 1   
    13    8    9 2   
    14    8   10 2   
    15    8   11 1   
    16   11   12 1   
    17   11   29 1   
    18   12   13 ar  
    19   12   15 ar  
    20   13   14 ar  
    21   13   30 1   
    22   14   21 ar  
    23   14   31 1   
    24   15   16 ar  
    25   15   32 1   
    26   16   17 1   
    27   16   21 ar  
    28   17   18 1   
    29   17   23 2   
    30   18   19 1   
    31   18   20 1   
    32   21   22 1   
    33   22   23 1   
    34   23   24 1   
    35   24   33 1   
    36   24   34 1   
    37   24   35 1   
@<TRIPOS>SUBSTRUCTURE
     1 VWS         1 TEMP              0 ****  ****    0 ROOT
