@<TRIPOS>MOLECULE
VX
   15    14     1     0     0
SMALL
bcc


@<TRIPOS>ATOM
      1 P1         -0.3120   -0.1230   -0.0870 p5        1 VX       1.342600
      2 O1          0.8420   -0.1400    0.8410 o         1 VX      -0.868000
      3 O2         -1.6030    0.5100    0.7720 os        1 VX      -0.593200
      4 C1         -0.1390    1.1030   -1.2340 c3        1 VX      -0.364300
      5 C2         -2.3040   -0.3930    1.5620 c3        1 VX       0.198400
      6 C3         -2.1490   -0.0690    3.0390 c3        1 VX      -0.117100
      7 H1         -0.3570    0.7260   -2.2580 hc        1 VX       0.057700
      8 H2         -0.8330    1.9490   -1.0310 hc        1 VX       0.057700
      9 H3          0.8970    1.5100   -1.2270 hc        1 VX       0.057700
     10 H21        -3.3990   -0.3210    1.2930 h1        1 VX       0.014200
     11 H22        -1.9590   -1.4450    1.3530 h1        1 VX       0.014200
     12 H31        -2.4810    0.9770    3.2400 hc        1 VX       0.022700
     13 H32        -2.7670   -0.7690    3.6480 hc        1 VX       0.022700
     14 H33        -1.0810   -0.1610    3.3490 hc        1 VX       0.022700
     15 O3         -0.8290   -1.3650   -0.7120 o         1 VX      -0.868000
@<TRIPOS>BOND
     1    1    2 1   
     2    1    3 1   
     3    1    4 1   
     4    1   15 1   
     5    3    5 1   
     6    4    7 1   
     7    4    8 1   
     8    4    9 1   
     9    5    6 1   
    10    5   10 1   
    11    5   11 1   
    12    6   12 1   
    13    6   13 1   
    14    6   14 1   
@<TRIPOS>SUBSTRUCTURE
     1 VX          1 TEMP              0 ****  ****    0 ROOT
