@<TRIPOS>MOLECULE
molecule
   15    14     1     0     0
SMALL
bcc


@<TRIPOS>ATOM
      1 P1           0.0000     0.0000     0.0000 p5         1 VX        1.172600
      2 O1           1.5020     0.0000     0.0000 o          1 VX       -0.817000
      3 O2          -0.6720     0.0000     1.4710 os         1 VX       -0.583200
      4 C1          -0.7150     1.3850    -0.8620 c3         1 VX       -0.315300
      5 C2          -2.0730    -0.1290     1.6320 c3         1 VX        0.209400
      6 C3          -2.4040    -0.0960     3.1090 c3         1 VX       -0.098100
      7 H1          -0.1420     1.5870    -1.7590 hc         1 VX        0.044033
      8 H2          -0.7000     2.2570    -0.2200 hc         1 VX        0.044033
      9 H3          -1.7380     1.1530    -1.1320 hc         1 VX        0.044033
     10 H21         -2.5730     0.6900     1.1300 h1         1 VX        0.020700
     11 H22         -2.4020    -1.0700     1.2080 h1         1 VX        0.020700
     12 H31         -3.4750    -0.1950     3.2410 hc         1 VX        0.024700
     13 H32         -2.0730     0.8440     3.5320 hc         1 VX        0.024700
     14 H33         -1.9010    -0.9140     3.6100 hc         1 VX        0.024700
     15 O3          -0.6690    -1.2910    -0.7070 o          1 VX       -0.817000
@<TRIPOS>BOND
     1     1     2 1
     2     1     3 1
     3     1     4 1
     4     3     5 1
     5     4     7 1
     6     4     8 1
     7     4     9 1
     8     5     6 1
     9     5    10 1
    10     5    11 1
    11     6    12 1
    12     6    13 1
    13     6    14 1
    14     1    15 1
@<TRIPOS>SUBSTRUCTURE
     1 VX          1 TEMP              0 ****  ****    0 ROOT
