@<TRIPOS>MOLECULE
VX1
   34    37     1     0     0
SMALL
bcc


@<TRIPOS>ATOM
      1 N1          0.2260   -0.9650    0.4790 nh        1 VX1     -0.926500
      2 C2          1.5240   -0.4700    0.3210 ca        1 VX1      0.867900
      3 N3          2.1200    0.1460    1.4200 nb        1 VX1     -0.747000
      4 C4          3.3180    0.7030    1.2000 ca        1 VX1      0.466200
      5 C5          3.9750    0.6720   -0.0420 ca        1 VX1     -0.415600
      6 C6          3.3150    0.0030   -1.0980 cp        1 VX1      0.532800
      7 N7          2.1010   -0.5760   -0.9390 nb        1 VX1     -0.754000
      8 C8          3.9660   -0.0730   -2.4200 cp        1 VX1     -0.166500
      9 C9          5.3850   -0.3160   -2.4560 ca        1 VX1     -0.093000
     10 C10         6.0810   -0.3770   -3.6250 ca        1 VX1     -0.101000
     11 C11         5.3710   -0.1940   -4.8550 ca        1 VX1     -0.071000
     12 N12         5.7860   -0.1860   -6.1460 nc        1 VX1     -0.119500
     13 O13         4.7440    0.0190   -6.9180 os        1 VX1      0.021400
     14 C14         3.5570    0.1610   -6.1640 cc        1 VX1      0.097900
     15 C15         2.3410    0.3900   -6.8960 ca        1 VX1     -0.050800
     16 C16         2.3890    0.8440   -8.2250 ca        1 VX1     -0.087500
     17 C17         1.2140    1.0760   -8.9330 ca        1 VX1     -0.130000
     18 C18        -0.0220    0.8510   -8.3160 ca        1 VX1      0.034400
     19 CL19       -1.4570    1.1350   -9.1760 cl        1 VX1     -0.081400
     20 C20        -0.0830    0.3920   -6.9960 ca        1 VX1     -0.130000
     21 C21         1.0950    0.1610   -6.2910 ca        1 VX1     -0.087500
     22 C22         3.9130    0.0350   -4.8190 ca        1 VX1     -0.143000
     23 C23         3.2420    0.0910   -3.5730 ca        1 VX1     -0.026000
     24 HN1        -0.0890   -1.6180   -0.2010 hn        1 VX1      0.427800
     25 HN1A       -0.0820   -1.1160    1.4120 hn        1 VX1      0.427800
     26 H4          3.7790    1.2000    2.0750 h4        1 VX1      0.028100
     27 H5          4.9480    1.1520   -0.1870 ha        1 VX1      0.157000
     28 H9          5.9040   -0.4640   -1.4950 ha        1 VX1      0.143000
     29 H10         7.1640   -0.5640   -3.6540 ha        1 VX1      0.155000
     30 H16         3.3660    1.0160   -8.7060 ha        1 VX1      0.152500
     31 H17         1.2600    1.4330   -9.9730 ha        1 VX1      0.154500
     32 H20        -1.0560    0.2100   -6.5140 ha        1 VX1      0.154500
     33 H21         1.0450   -0.2130   -5.2560 ha        1 VX1      0.152500
     34 H23         2.1570    0.2750   -3.5490 ha        1 VX1      0.154000
@<TRIPOS>BOND
     1    1    2 1   
     2    1   24 1   
     3    1   25 1   
     4    2    3 ar  
     5    2    7 ar  
     6    3    4 ar  
     7    4    5 ar  
     8    4   26 1   
     9    5    6 ar  
    10    5   27 1   
    11    6    7 ar  
    12    6    8 1   
    13    8    9 ar  
    14    8   23 ar  
    15    9   10 ar  
    16    9   28 1   
    17   10   11 ar  
    18   10   29 1   
    19   11   12 2   
    20   11   22 ar  
    21   12   13 1   
    22   13   14 1   
    23   14   15 1   
    24   14   22 2   
    25   15   16 ar  
    26   15   21 ar  
    27   16   17 ar  
    28   16   30 1   
    29   17   18 ar  
    30   17   31 1   
    31   18   19 1   
    32   18   20 ar  
    33   20   21 ar  
    34   20   32 1   
    35   21   33 1   
    36   22   23 ar  
    37   23   34 1   
@<TRIPOS>SUBSTRUCTURE
     1 VX1         1 TEMP              0 ****  ****    0 ROOT
