@<TRIPOS>MOLECULE
VX2
   44    47     1     0     0
SMALL
bcc


@<TRIPOS>ATOM
      1 C1           0.0000     0.0000     0.0000 c3         1 VX2       0.642200
      2 N2           1.9980    -0.1990     6.2810 nc         1 VX2      -0.036000
      3 C3           2.5030     0.0000     0.0000 ca         1 VX2      -0.045000
      4 C4           3.7230     0.0000     0.6550 ca         1 VX2      -0.110000
      5 C5           3.7670    -0.0090     2.0340 ca         1 VX2      -0.074000
      6 C9           3.2810     0.1300     6.3230 cd         1 VX2      -0.353300
      7 C10          4.1920     0.3550     7.3720 cd         1 VX2       0.076000
      8 C12          5.8820     0.8050     5.7290 cc         1 VX2       0.578200
      9 C13          7.6290     1.2700     4.0410 c3         1 VX2       0.125500
     10 C2           1.3230    -0.0020     0.7220 ca         1 VX2      -0.215300
     11 C7           1.3550    -0.0040     2.1010 ca         1 VX2      -0.008000
     12 C11          5.4770     0.6880     7.0730 cc         1 VX2      -0.304300
     13 C15          9.2840     2.3410     2.5060 c3         1 VX2      -0.017400
     14 N1           1.6140    -0.2870     5.0560 nc         1 VX2      -0.328700
     15 F1           0.2230     0.0030    -1.3810 f          1 VX2      -0.207967
     16 F2          -0.7250    -1.1430     0.3530 f          1 VX2      -0.207967
     17 F3          -0.7250     1.1410     0.3580 f          1 VX2      -0.207967
     18 C6           2.5800    -0.0170     2.7680 ca         1 VX2      -0.085900
     19 C8           2.6220    -0.0190     4.2460 cd         1 VX2       0.189400
     20 C14          8.8330     2.2110     3.9620 c3         1 VX2      -0.039400
     21 C16          9.6760     0.9630     1.9670 c3         1 VX2      -0.028400
     22 C17          8.4710     0.0230     2.0480 c3         1 VX2      -0.017400
     23 C18          8.0210    -0.1070     3.5040 c3         1 VX2      -0.039400
     24 N4           5.0330     0.5950     4.7500 nd         1 VX2      -0.741800
     25 N5           3.7070     0.2530     5.0240 na         1 VX2       0.627300
     26 H3           2.4730     0.0070    -1.0830 ha         1 VX2       0.119000
     27 H4           4.6430     0.0040     0.0840 ha         1 VX2       0.109000
     28 H5           4.7220    -0.0140     2.5450 ha         1 VX2       0.132000
     29 H10          3.8750     0.2630     8.4030 ha         1 VX2       0.125000
     30 H13          6.8200     1.6720     3.4430 h1         1 VX2       0.060700
     31 H7           0.4300    -0.0100     2.6660 ha         1 VX2       0.136000
     32 H11          6.1890     0.8640     7.8710 ha         1 VX2       0.128000
     33 H15         10.1380     3.0050     2.4510 hc         1 VX2       0.017700
     34 H15A         8.4700     2.7410     1.9120 hc         1 VX2       0.017700
     35 HN3          7.8430     1.3370     6.1780 hn         1 VX2       0.298800
     36 H14          8.5530     3.1870     4.3400 hc         1 VX2       0.021200
     37 H14A         9.6450     1.8070     4.5550 hc         1 VX2       0.021200
     38 H16         10.4860     0.5610     2.5640 hc         1 VX2       0.016700
     39 H16A         9.9910     1.0560     0.9350 hc         1 VX2       0.016700
     40 H17          8.7500    -0.9530     1.6690 hc         1 VX2       0.017700
     41 H17A         7.6590     0.4270     1.4550 hc         1 VX2       0.017700
     42 H18          8.8340    -0.5070     4.0980 hc         1 VX2       0.021200
     43 H18A         7.1660    -0.7710     3.5590 hc         1 VX2       0.021200
     44 N3           7.1980     1.1460     5.4360 nu         1 VX2      -0.471900
@<TRIPOS>BOND
     1     1    10 1   
     2     1    15 1   
     3     1    16 1   
     4     1    17 1   
     5     2     6 2   
     6     2    14 1   
     7     3     4 ar  
     8     3    10 ar  
     9     3    26 1   
    10     4     5 ar  
    11     4    27 1   
    12     5    18 ar  
    13     5    28 1   
    14     6     7 1   
    15     6    25 1   
    16     7    12 2   
    17     7    29 1   
    18     8    12 1   
    19     8    24 2   
    20     8    44 1   
    21     9    20 1   
    22     9    23 1   
    23     9    30 1   
    24     9    44 1   
    25    10    11 ar  
    26    11    18 ar  
    27    11    31 1   
    28    12    32 1   
    29    13    20 1   
    30    13    21 1   
    31    13    33 1   
    32    13    34 1   
    33    14    19 2   
    34    18    19 1   
    35    19    25 1   
    36    20    36 1   
    37    20    37 1   
    38    21    22 1   
    39    21    38 1   
    40    21    39 1   
    41    22    23 1   
    42    22    40 1   
    43    22    41 1   
    44    23    42 1   
    45    23    43 1   
    46    24    25 1   
    47    35    44 1   
@<TRIPOS>SUBSTRUCTURE
     1 VX2         1 TEMP              0 ****  ****    0 ROOT
