@<TRIPOS>MOLECULE
molecule
   38    41     1     0     0
SMALL
bcc


@<TRIPOS>ATOM
      1 O2           0.0000     0.0000     0.0000 o          1 VX3      -0.844800
      2 C16          0.9780     0.0000    -4.7820 cc         1 VX3      -0.127400
      3 C19          2.1280    -1.1520    -8.1830 ca         1 VX3      -0.138000
      4 C3           1.2160     0.0000     0.0000 c          1 VX3       0.889200
      5 O4           1.8890     0.0000     1.1670 o          1 VX3      -0.844800
      6 C5           1.9520     0.0000    -1.2760 ca         1 VX3      -0.114600
      7 C6           1.2520     0.0000    -2.4960 ca         1 VX3       0.000800
      8 N7          -0.0840    -0.0010    -2.8070 na         1 VX3      -0.136400
      9 C9          -0.2570     0.0000    -4.1700 cd         1 VX3      -0.015300
     10 C10         -1.5580     0.0000    -4.8680 ca         1 VX3      -0.016800
     11 C11         -1.7860    -0.8810    -5.9280 ca         1 VX3      -0.111000
     12 C12         -3.0040    -0.8750    -6.5750 ca         1 VX3      -0.135500
     13 C13         -3.9980     0.0000    -6.1780 ca         1 VX3      -0.139000
     14 C14         -3.7790     0.8770    -5.1290 ca         1 VX3      -0.135500
     15 C15         -2.5690     0.8780    -4.4680 ca         1 VX3      -0.111000
     16 C17          1.2740    -0.0430    -6.2320 ca         1 VX3       0.018200
     17 C18          1.8760    -1.1530    -6.8260 ca         1 VX3      -0.120500
     18 C20          1.7910    -0.0520    -8.9520 ca         1 VX3      -0.149000
     19 C21          1.2000     1.0540    -8.3670 ca         1 VX3      -0.138000
     20 C22          0.9420     1.0660    -7.0120 ca         1 VX3      -0.120500
     21 C23          1.9770     0.0010    -3.7010 ca         1 VX3      -0.115800
     22 C24          3.3710     0.0010    -3.6800 ca         1 VX3      -0.112000
     23 C25          4.0430     0.0010    -2.4750 ca         1 VX3      -0.174000
     24 C26          3.3460     0.0000    -1.2810 ca         1 VX3      -0.087000
     25 H11         -1.0090    -1.5670    -6.2400 ha         1 VX3       0.142500
     26 H12         -3.1820    -1.5590    -7.3970 ha         1 VX3       0.122500
     27 H13         -4.9520     0.0020    -6.6910 ha         1 VX3       0.117000
     28 H14         -4.5630     1.5580    -4.8220 ha         1 VX3       0.122500
     29 H15         -2.3990     1.5640    -3.6480 ha         1 VX3       0.142500
     30 H18          2.1400    -2.0140    -6.2250 ha         1 VX3       0.138000
     31 H20          1.9920    -0.0570   -10.0170 ha         1 VX3       0.113000
     32 H21          0.9410     1.9130    -8.9750 ha         1 VX3       0.117000
     33 H22          0.4800     1.9320    -6.5550 ha         1 VX3       0.138000
     34 H24          3.9270     0.0020    -4.6100 ha         1 VX3       0.110000
     35 H25          5.1260     0.0010    -2.4640 ha         1 VX3       0.107000
     36 H26          3.8870     0.0000    -0.3430 ha         1 VX3       0.156000
     37 HN7         -0.8270    -0.0010    -2.1360 hn         1 VX3       0.333700
     38 H19          2.5930    -2.0140    -8.6460 ha         1 VX3       0.117000
@<TRIPOS>BOND
     1     1     4 1
     2    16     2 1
     3     9     2 2
     4     2    21 1
     5    18     3 ar
     6     3    17 ar
     7     3    38 1
     8     6     4 1
     9     4     5 1
    10     7     6 ar
    11     6    24 ar
    12     8     7 1
    13    21     7 ar
    14     9     8 1
    15    10     9 1
    16    11    10 ar
    17    15    10 ar
    18    12    11 ar
    19    11    25 1
    20    13    12 ar
    21    12    26 1
    22    13    14 ar
    23    13    27 1
    24    14    15 ar
    25    14    28 1
    26    15    29 1
    27    20    16 ar
    28    16    17 ar
    29    17    30 1
    30    19    18 ar
    31    18    31 1
    32    19    20 ar
    33    19    32 1
    34    20    33 1
    35    21    22 ar
    36    22    23 ar
    37    22    34 1
    38    23    24 ar
    39    23    35 1
    40    24    36 1
    41     8    37 1
@<TRIPOS>SUBSTRUCTURE
     1 VX3         1 TEMP              0 ****  ****    0 ROOT
