@<TRIPOS>MOLECULE
VX3
   38    41     1     0     0
SMALL
bcc


@<TRIPOS>ATOM
      1 O2         -0.1690    0.1630   -0.1030 o         1 VX3     -0.835300
      2 C16         1.0170   -0.0580   -4.8590 cc        1 VX3     -0.111400
      3 C19         2.6390   -0.9650   -8.1120 ca        1 VX3     -0.135500
      4 C3          1.0940    0.0700   -0.0120 c         1 VX3      0.916200
      5 O4          1.7150    0.0490    1.0840 o         1 VX3     -0.835300
      6 C5          1.8970   -0.0210   -1.2960 ca        1 VX3     -0.124600
      7 C6          1.2610   -0.0130   -2.5570 ca        1 VX3     -0.018200
      8 N7         -0.0930    0.0790   -2.8560 na        1 VX3     -0.137400
      9 C9         -0.2540    0.0480   -4.2410 cd        1 VX3     -0.014300
     10 C10        -1.5740    0.0960   -4.8520 ca        1 VX3     -0.018800
     11 C11        -1.8520   -0.6640   -5.9980 ca        1 VX3     -0.117000
     12 C12        -3.1190   -0.6320   -6.5740 ca        1 VX3     -0.137500
     13 C13        -4.1260    0.1540   -6.0140 ca        1 VX3     -0.142000
     14 C14        -3.8580    0.9110   -4.8740 ca        1 VX3     -0.137500
     15 C15        -2.5920    0.8840   -4.2930 ca        1 VX3     -0.117000
     16 C17         1.3220   -0.0870   -6.2670 ca        1 VX3      0.023200
     17 C18         2.3190   -0.9490   -6.7570 ca        1 VX3     -0.134500
     18 C20         1.9740   -0.1230   -9.0020 ca        1 VX3     -0.157000
     19 C21         0.9830    0.7360   -8.5280 ca        1 VX3     -0.135500
     20 C22         0.6590    0.7560   -7.1740 ca        1 VX3     -0.134500
     21 C23         1.9980   -0.1000   -3.7950 ca        1 VX3     -0.107800
     22 C24         3.3960   -0.1790   -3.7400 ca        1 VX3     -0.117000
     23 C25         4.0160   -0.1850   -2.5030 ca        1 VX3     -0.168000
     24 C26         3.2790   -0.1110   -1.3020 ca        1 VX3     -0.108000
     25 H11        -1.0540   -1.2820   -6.4410 ha        1 VX3      0.147000
     26 H12        -3.3260   -1.2330   -7.4720 ha        1 VX3      0.123500
     27 H13        -5.1260    0.1750   -6.4680 ha        1 VX3      0.119000
     28 H14        -4.6490    1.5310   -4.4270 ha        1 VX3      0.123500
     29 H15        -2.3930    1.4880   -3.3930 ha        1 VX3      0.147000
     30 H18         2.8450   -1.6140   -6.0550 ha        1 VX3      0.140000
     31 H20         2.2290   -0.1350  -10.0710 ha        1 VX3      0.115000
     32 H21         0.4570    1.4050   -9.2250 ha        1 VX3      0.117000
     33 H22        -0.1250    1.4330   -6.8020 ha        1 VX3      0.140000
     34 H24         3.9810   -0.2270   -4.6680 ha        1 VX3      0.113000
     35 H25         5.1120   -0.2480   -2.4460 ha        1 VX3      0.106000
     36 H26         3.8020   -0.1190   -0.3320 ha        1 VX3      0.149000
     37 HN7        -0.7930    0.1180   -2.1440 hn        1 VX3      0.348700
     38 H19         3.4210   -1.6450   -8.4800 ha        1 VX3      0.117000
@<TRIPOS>BOND
     1    1    4 1   
     2    2    9 2   
     3    2   16 1   
     4    2   21 1   
     5    3   17 ar  
     6    3   18 ar  
     7    3   38 1   
     8    4    5 1   
     9    4    6 1   
    10    6    7 ar  
    11    6   24 ar  
    12    7    8 1   
    13    7   21 ar  
    14    8    9 1   
    15    8   37 1   
    16    9   10 1   
    17   10   11 ar  
    18   10   15 ar  
    19   11   12 ar  
    20   11   25 1   
    21   12   13 ar  
    22   12   26 1   
    23   13   14 ar  
    24   13   27 1   
    25   14   15 ar  
    26   14   28 1   
    27   15   29 1   
    28   16   17 ar  
    29   16   20 ar  
    30   17   30 1   
    31   18   19 ar  
    32   18   31 1   
    33   19   20 ar  
    34   19   32 1   
    35   20   33 1   
    36   21   22 ar  
    37   22   23 ar  
    38   22   34 1   
    39   23   24 ar  
    40   23   35 1   
    41   24   36 1   
@<TRIPOS>SUBSTRUCTURE
     1 VX3         1 TEMP              0 ****  ****    0 ROOT
