@<TRIPOS>MOLECULE
molecule
   61    65     1     0     0
SMALL
bcc


@<TRIPOS>ATOM
      1 N1           0.0000     0.0000     0.0000 n3         1 VX6      -0.675600
      2 C2           1.4680     0.0000     0.0000 c3         1 VX6       0.131300
      3 C3           1.9820     0.0000     1.4410 c3         1 VX6       0.147300
      4 N4           1.5550     1.2310     2.1170 nh         1 VX6      -0.655300
      5 C5           0.0870     1.2310     2.1160 c3         1 VX6       0.147300
      6 C6          -0.4270     1.2310     0.6760 c3         1 VX6       0.131300
      7 C7          -0.4210     0.1200    -1.4030 c3         1 VX6       0.125100
      8 C8           1.9530     1.1180     3.4400 ca         1 VX6       0.657200
      9 C9           3.3050     1.0900     3.7690 ca         1 VX6      -0.457600
     10 C10          3.6570     0.9750     5.1110 ca         1 VX6       0.744200
     11 N11          2.6970     0.8960     6.0290 nb         1 VX6      -0.813000
     12 C12          1.4190     0.9260     5.6780 ca         1 VX6       0.830300
     13 N13          1.0470     1.0400     4.4120 nb         1 VX6      -0.796000
     14 N14          4.9930     0.9440     5.4870 nu         1 VX6      -0.754300
     15 C15          5.9860     0.8130     4.5180 cc         1 VX6       0.173300
     16 C17          5.8520     0.2110     3.3040 cd         1 VX6      -0.390300
     17 C18          7.0820     0.3000     2.6450 cd         1 VX6       0.359600
     18 N19          7.9270     0.9210     3.4270 nc         1 VX6      -0.508800
     19 N20          7.2660     1.2560     4.6160 na         1 VX6      -0.064600
     20 C21          7.3840    -0.2350     1.2690 c3         1 VX6      -0.112400
     21 S23          0.1830     0.8180     6.9300 ss         1 VX6      -0.203200
     22 C24          1.2010     0.8480     8.3680 ca         1 VX6      -0.031100
     23 C25          1.6110     2.0630     8.9030 ca         1 VX6      -0.048500
     24 C26          2.4070     2.0860    10.0300 ca         1 VX6      -0.162500
     25 C27          2.7980     0.8960    10.6290 ca         1 VX6       0.085600
     26 C28          2.3890    -0.3180    10.0940 ca         1 VX6      -0.162500
     27 C29          1.5880    -0.3420     8.9700 ca         1 VX6      -0.048500
     28 N30          3.6070     0.9200    11.7740 ns         1 VX6      -0.478100
     29 C31          4.5260    -0.0460    11.9700 c          1 VX6       0.694100
     30 O32          4.7280    -0.8740    11.1070 o          1 VX6      -0.591100
     31 C33          5.3020    -0.0960    13.2610 cx         1 VX6      -0.241700
     32 C34          6.3300    -1.2170    13.4230 cx         1 VX6      -0.106900
     33 C35          6.7970     0.2230    13.2000 cx         1 VX6      -0.106900
     34 H21          1.8270     0.8860    -0.5100 h1         1 VX6       0.046450
     35 H22          1.8270    -0.8860    -0.5090 h1         1 VX6       0.046450
     36 H31          1.5780    -0.8570     1.9660 h1         1 VX6       0.062200
     37 H32          3.0640    -0.0510     1.4360 h1         1 VX6       0.062200
     38 H51         -0.2730     0.3450     2.6250 h1         1 VX6       0.062200
     39 H52         -0.2730     2.1170     2.6250 h1         1 VX6       0.062200
     40 H61         -0.0230     2.0880     0.1510 h1         1 VX6       0.046450
     41 H62         -1.5090     1.2820     0.6810 h1         1 VX6       0.046450
     42 H71          0.0080     1.0160    -1.8340 h1         1 VX6       0.035700
     43 H72         -1.5020     0.1780    -1.4510 h1         1 VX6       0.035700
     44 H73         -0.0810    -0.7470    -1.9570 h1         1 VX6       0.035700
     45 H9           4.0640     1.1570     3.0000 ha         1 VX6       0.180000
     46 H14          5.2410     0.9980     6.4540 hn         1 VX6       0.463800
     47 H17          4.9520    -0.2490     2.9160 ha         1 VX6       0.168000
     48 H20          7.6650     1.7380     5.3970 hn         1 VX6       0.328700
     49 H211         7.0010     0.4510     0.5230 hc         1 VX6       0.051367
     50 H212         6.9120    -1.2020     1.1450 hc         1 VX6       0.051367
     51 H213         8.4550    -0.3380     1.1480 hc         1 VX6       0.051367
     52 H25          1.3050     2.9910     8.4360 ha         1 VX6       0.145000
     53 H26          2.7270     3.0330    10.4480 ha         1 VX6       0.147500
     54 H28          2.6920    -1.2460    10.5620 ha         1 VX6       0.147500
     55 H29          1.2690    -1.2890     8.5530 ha         1 VX6       0.145000
     56 H30          3.4770     1.6340    12.4630 hn         1 VX6       0.327500
     57 H33          4.8110     0.2050    14.1780 hc         1 VX6       0.089700
     58 H341         6.4380    -1.8810    12.5740 hc         1 VX6       0.085700
     59 H342         6.4530    -1.5970    14.4310 hc         1 VX6       0.085700
     60 H351         7.2040     0.7230    14.0700 hc         1 VX6       0.085700
     61 H352         7.1890     0.4400    12.2140 hc         1 VX6       0.085700
@<TRIPOS>BOND
     1     1     2 1
     2     1     6 1
     3     1     7 1
     4     2     3 1
     5     2    34 1
     6     2    35 1
     7     3     4 1
     8     3    36 1
     9     3    37 1
    10     4     5 1
    11     4     8 1
    12     5     6 1
    13     5    38 1
    14     5    39 1
    15     6    40 1
    16     6    41 1
    17     7    42 1
    18     7    43 1
    19     7    44 1
    20     8     9 ar
    21     8    13 ar
    22     9    10 ar
    23     9    45 1
    24    10    11 ar
    25    10    14 1
    26    11    12 ar
    27    12    13 ar
    28    12    21 1
    29    14    15 1
    30    14    46 1
    31    15    16 2
    32    15    19 1
    33    16    17 1
    34    16    47 1
    35    17    18 2
    36    17    20 1
    37    18    19 1
    38    19    48 1
    39    20    49 1
    40    20    50 1
    41    20    51 1
    42    21    22 1
    43    22    23 ar
    44    22    27 ar
    45    23    24 ar
    46    23    52 1
    47    24    25 ar
    48    24    53 1
    49    25    26 ar
    50    25    28 1
    51    26    27 ar
    52    26    54 1
    53    27    55 1
    54    28    29 1
    55    28    56 1
    56    29    30 2
    57    29    31 1
    58    31    32 1
    59    31    33 1
    60    31    57 1
    61    32    33 1
    62    32    58 1
    63    32    59 1
    64    33    60 1
    65    33    61 1
@<TRIPOS>SUBSTRUCTURE
     1 VX6         1 TEMP              0 ****  ****    0 ROOT
