@<TRIPOS>MOLECULE
molecule
    8     7     1     0     0
SMALL
bcc


@<TRIPOS>ATOM
      1 P1           0.0000     0.0000     0.0000 p5         1 VXA       1.086600
      2 O1           1.5260     0.0000     0.0000 o          1 VXA      -0.837000
      3 O2          -0.7170     0.0000     1.3470 o          1 VXA      -0.837000
      4 C1          -0.4990    -1.5120    -0.8320 c3         1 VXA      -0.309300
      5 H11         -0.0630    -1.5390    -1.8230 hc         1 VXA       0.037700
      6 H12         -1.5790    -1.5400    -0.9120 hc         1 VXA       0.037700
      7 H13         -0.1570    -2.3670    -0.2620 hc         1 VXA       0.037700
      8 HP1         -0.4400     1.0880    -0.7730 hp         1 VXA      -0.216400
@<TRIPOS>BOND
     1     1     2 1
     2     1     3 1
     3     1     4 1
     4     4     5 1
     5     4     6 1
     6     4     7 1
     7     8     1 1
@<TRIPOS>SUBSTRUCTURE
     1 VXA         1 TEMP              0 ****  ****    0 ROOT
