@<TRIPOS>MOLECULE
VXA
    8     7     1     0     0
SMALL
bcc


@<TRIPOS>ATOM
      1 P1          0.0270   -0.0580    0.0500 p5        1 VXA      1.270600
      2 O1          1.5080    0.0380    0.0010 o         1 VXA     -0.887500
      3 O2         -0.7020    0.0180    1.3410 o         1 VXA     -0.887500
      4 C1         -0.4830   -1.4290   -0.8110 c3        1 VXA     -0.357300
      5 H11        -0.1570   -2.3530   -0.2840 hc        1 VXA      0.044033
      6 H12        -0.0490   -1.4540   -1.8330 hc        1 VXA      0.044033
      7 H13        -1.5890   -1.4660   -0.9010 hc        1 VXA      0.044033
      8 HP1        -0.4830    0.8620   -0.7780 hp        1 VXA     -0.269400
@<TRIPOS>BOND
     1    1    2 1   
     2    1    3 1   
     3    1    4 1   
     4    1    8 1   
     5    4    5 1   
     6    4    6 1   
     7    4    7 1   
@<TRIPOS>SUBSTRUCTURE
     1 VXA         1 TEMP              0 ****  ****    0 ROOT
