@<TRIPOS>MOLECULE
molecule
   59    62     1     0     0
SMALL
bcc


@<TRIPOS>ATOM
      1 C1           0.0000     0.0000     0.0000 ca         1 VXO      -0.164000
      2 C2           1.3880     0.0000     0.0000 ca         1 VXO      -0.115000
      3 C3          -0.6950     0.0010     1.1770 ca         1 VXO      -0.068000
      4 C4          -4.0710    -5.8950     6.2730 ca         1 VXO      -0.141000
      5 C5           2.0900     0.0000     1.1850 ca         1 VXO      -0.149000
      6 C6          -3.3020    -6.5210     7.2390 ca         1 VXO      -0.140000
      7 C7           0.7080     0.0030     4.5320 cc         1 VXO      -0.089100
      8 C8          -0.0030     0.0020     2.3890 ca         1 VXO      -0.081800
      9 C9          -5.5230    -5.0320     7.9820 ca         1 VXO      -0.056600
     10 C10         -5.1750    -5.1540     6.6330 ca         1 VXO      -0.075300
     11 C11         -0.4140     0.0030     3.7960 cd         1 VXO      -0.123400
     12 C12          1.4030     0.0020     2.3960 ca         1 VXO      -0.038200
     13 C13         -3.6330    -6.4110     8.5790 ca         1 VXO       0.021100
     14 C14         -4.7460    -5.6660     8.9590 ca         1 VXO       0.067100
     15 C16         -2.3420    -1.4130     4.3750 c          1 VXO       0.648100
     16 C17         -3.5740    -6.1480    10.7940 c3         1 VXO       0.327200
     17 C20         -1.8280     0.0030     4.3170 c3         1 VXO      -0.083200
     18 C21         -6.0060    -4.4750     5.5750 c3         1 VXO      -0.018100
     19 C22         -6.4380    -2.3130     4.4010 c3         1 VXO      -0.072400
     20 C23         -4.0920    -3.0340     4.8690 c3         1 VXO       0.109000
     21 C24         -7.8400    -2.1750     4.9990 c3         1 VXO      -0.078700
     22 C25         -5.5280    -3.0330     5.3980 c3         1 VXO      -0.094700
     23 N26          1.8040     0.0010     3.7130 na         1 VXO      -0.185400
     24 N27         -3.5920    -1.6580     4.8130 ns         1 VXO      -0.578900
     25 O28         -7.8080    -4.7450     8.3540 o          1 VXO      -0.829800
     26 O29         -6.5580    -2.9560     8.7520 o          1 VXO      -0.829800
     27 O30         -1.6300    -2.3310     4.0270 o          1 VXO      -0.608100
     28 O31         -3.0470    -6.9220     9.7010 os         1 VXO      -0.348900
     29 O32         -4.8590    -5.7100    10.3160 os         1 VXO      -0.301900
     30 H1          -0.5370    -0.0000    -0.9410 ha         1 VXO       0.122000
     31 H2           1.9240    -0.0010    -0.9410 ha         1 VXO       0.121000
     32 H3          -1.7780     0.0010     1.1690 ha         1 VXO       0.131000
     33 H5           3.1730     0.0000     1.1740 ha         1 VXO       0.117000
     34 H4          -3.8030    -5.9890     5.2270 ha         1 VXO       0.123000
     35 H6          -2.4350    -7.1020     6.9440 ha         1 VXO       0.120000
     36 H7           0.7410     0.0040     5.6150 h4         1 VXO       0.167000
     37 H26          2.7550     0.0010     4.0240 hn         1 VXO       0.290700
     38 H211        -7.0470    -4.4770     5.8770 hc         1 VXO       0.058200
     39 H212        -5.9020    -5.0080     4.6370 hc         1 VXO       0.058200
     40 H201        -1.8470     0.4350     5.3100 hc         1 VXO       0.060200
     41 H202        -2.4560     0.5890     3.6560 hc         1 VXO       0.060200
     42 H27         -4.1660    -0.9030     5.1340 hn         1 VXO       0.315500
     43 H171        -3.6890    -6.7670    11.6760 h2         1 VXO       0.051700
     44 H172        -2.9350    -5.2970    10.9990 h2         1 VXO       0.051700
     45 H181        -7.6250    -0.2220     5.8710 hc         1 VXO       0.033533
     46 H182        -8.7270    -1.2930     6.7470 hc         1 VXO       0.033533
     47 H183        -6.9790    -1.5370     6.8630 hc         1 VXO       0.033533
     48 H24         -8.1970    -3.1490     5.3110 hc         1 VXO       0.072700
     49 H191        -8.9000    -2.3060     3.1340 hc         1 VXO       0.033533
     50 H192        -9.7550    -1.4090     4.3960 hc         1 VXO       0.033533
     51 H193        -8.3810    -0.6700     3.5630 hc         1 VXO       0.033533
     52 H25         -5.5620    -2.5220     6.3530 hc         1 VXO       0.108700
     53 H221        -6.4920    -2.8850     3.4830 hc         1 VXO       0.027200
     54 H222        -6.0370    -1.3290     4.1910 hc         1 VXO       0.027200
     55 H231        -4.0740    -3.4660     3.8760 h1         1 VXO       0.052700
     56 H232        -3.4640    -3.6190     5.5290 h1         1 VXO       0.052700
     57 C15         -6.7040    -4.2400     8.3740 c          1 VXO       0.889200
     58 C18         -7.7890    -1.2390     6.2080 c3         1 VXO      -0.090600
     59 C19         -8.7880    -1.5980     3.9460 c3         1 VXO      -0.090600
@<TRIPOS>BOND
     1     1     2 ar
     2     1     3 ar
     3     2     5 ar
     4     3     8 ar
     5     4     6 ar
     6     4    10 ar
     7     5    12 ar
     8     6    13 ar
     9     7    11 2
    10     7    23 1
    11     8    11 1
    12     8    12 ar
    13     9    10 ar
    14     9    14 ar
    15     9    57 1
    16    10    18 1
    17    11    17 1
    18    12    23 1
    19    13    14 ar
    20    13    28 1
    21    14    29 1
    22    57    25 1
    23    57    26 1
    24    15    17 1
    25    15    24 1
    26    15    27 2
    27    16    28 1
    28    16    29 1
    29    58    21 1
    30    59    21 1
    31    18    22 1
    32    19    21 1
    33    19    22 1
    34    20    22 1
    35    20    24 1
    36     1    30 1
    37     2    31 1
    38     3    32 1
    39     5    33 1
    40     4    34 1
    41     6    35 1
    42     7    36 1
    43    23    37 1
    44    18    38 1
    45    18    39 1
    46    17    40 1
    47    17    41 1
    48    24    42 1
    49    16    43 1
    50    16    44 1
    51    58    45 1
    52    58    46 1
    53    58    47 1
    54    21    48 1
    55    59    49 1
    56    59    50 1
    57    59    51 1
    58    22    52 1
    59    19    53 1
    60    19    54 1
    61    20    55 1
    62    20    56 1
@<TRIPOS>SUBSTRUCTURE
     1 VXO         1 TEMP              0 ****  ****    0 ROOT
