@<TRIPOS>MOLECULE
VXO
   59    62     1     0     0
SMALL
bcc


@<TRIPOS>ATOM
      1 C1           0.0000     0.0000     0.0000 ca         1 VXO      -0.143000
      2 C2           1.3880     0.0000     0.0000 ca         1 VXO      -0.092000
      3 C3          -0.6950     0.0010     1.1770 ca         1 VXO      -0.032000
      4 C4          -4.0710    -5.8950     6.2730 ca         1 VXO      -0.124000
      5 C5           2.0900     0.0000     1.1850 ca         1 VXO      -0.110000
      6 C6          -3.3020    -6.5210     7.2390 ca         1 VXO      -0.118000
      7 C7           0.7080     0.0030     4.5320 cc         1 VXO      -0.261100
      8 C8          -0.0030     0.0020     2.3890 ca         1 VXO      -0.080800
      9 C9          -5.5230    -5.0320     7.9820 ca         1 VXO      -0.054600
     10 C10         -5.1750    -5.1540     6.6330 ca         1 VXO      -0.076300
     11 C11         -0.4140     0.0030     3.7960 cd         1 VXO      -0.109400
     12 C12          1.4030     0.0020     2.3960 ca         1 VXO      -0.225200
     13 C13         -3.6330    -6.4110     8.5790 ca         1 VXO       0.022100
     14 C14         -4.7460    -5.6660     8.9590 ca         1 VXO       0.081100
     15 C16         -2.3420    -1.4130     4.3750 c          1 VXO       0.558100
     16 C17         -3.5740    -6.1480    10.7940 c3         1 VXO       0.421200
     17 C20         -1.8280     0.0030     4.3170 c3         1 VXO      -0.004200
     18 C21         -6.0060    -4.4750     5.5750 c3         1 VXO       0.030900
     19 C22         -6.4380    -2.3130     4.4010 c3         1 VXO      -0.025400
     20 C23         -4.0920    -3.0340     4.8690 c3         1 VXO       0.035000
     21 C24         -7.8400    -2.1750     4.9990 c3         1 VXO      -0.061700
     22 C25         -5.5280    -3.0330     5.3980 c3         1 VXO      -0.087700
     23 N26          1.8040     0.0010     3.7130 na         1 VXO       0.350600
     24 N27         -3.5920    -1.6580     4.8130 ns         1 VXO      -0.187900
     25 O28         -7.8080    -4.7450     8.3540 o          1 VXO      -0.880800
     26 O29         -6.5580    -2.9560     8.7520 o          1 VXO      -0.880800
     27 O30         -1.6300    -2.3310     4.0270 o          1 VXO      -0.654100
     28 O31         -3.0470    -6.9220     9.7010 os         1 VXO      -0.333900
     29 O32         -4.8590    -5.7100    10.3160 os         1 VXO      -0.287900
     30 H1          -0.5370    -0.0000    -0.9410 ha         1 VXO       0.097000
     31 H2           1.9240    -0.0010    -0.9410 ha         1 VXO       0.093000
     32 H3          -1.7780     0.0010     1.1690 ha         1 VXO       0.101000
     33 H5           3.1730     0.0000     1.1740 ha         1 VXO       0.092000
     34 H4          -3.8030    -5.9890     5.2270 ha         1 VXO       0.101000
     35 H6          -2.4350    -7.1020     6.9440 ha         1 VXO       0.095000
     36 H7           0.7410     0.0040     5.6150 h4         1 VXO       0.141000
     37 H26          2.7550     0.0010     4.0240 hn         1 VXO       0.107700
     38 H211        -7.0470    -4.4770     5.8770 hc         1 VXO       0.032700
     39 H212        -5.9020    -5.0080     4.6370 hc         1 VXO       0.032700
     40 H201        -1.8470     0.4350     5.3100 hc         1 VXO       0.023700
     41 H202        -2.4560     0.5890     3.6560 hc         1 VXO       0.023700
     42 H27         -4.1660    -0.9030     5.1340 hn         1 VXO       0.179500
     43 H171        -3.6890    -6.7670    11.6760 h2         1 VXO      -0.001800
     44 H172        -2.9350    -5.2970    10.9990 h2         1 VXO      -0.001800
     45 H181        -7.6250    -0.2220     5.8710 hc         1 VXO       0.006200
     46 H182        -8.7270    -1.2930     6.7470 hc         1 VXO       0.006200
     47 H183        -6.9790    -1.5370     6.8630 hc         1 VXO       0.006200
     48 H24         -8.1970    -3.1490     5.3110 hc         1 VXO       0.054700
     49 H191        -8.9000    -2.3060     3.1340 hc         1 VXO       0.006200
     50 H192        -9.7550    -1.4090     4.3960 hc         1 VXO       0.006200
     51 H193        -8.3810    -0.6700     3.5630 hc         1 VXO       0.006200
     52 H25         -5.5620    -2.5220     6.3530 hc         1 VXO       0.092700
     53 H221        -6.4920    -2.8850     3.4830 hc         1 VXO       0.003700
     54 H222        -6.0370    -1.3290     4.1910 hc         1 VXO       0.003700
     55 H231        -4.0740    -3.4660     3.8760 h1         1 VXO       0.031700
     56 H232        -3.4640    -3.6190     5.5290 h1         1 VXO       0.031700
     57 C15         -6.7040    -4.2400     8.3740 c          1 VXO       0.982200
     58 C18         -7.7890    -1.2390     6.2080 c3         1 VXO      -0.010100
     59 C19         -8.7880    -1.5980     3.9460 c3         1 VXO      -0.010100
@<TRIPOS>BOND
     1     1     2 ar  
     2     1     3 ar  
     3     1    30 1   
     4     2     5 ar  
     5     2    31 1   
     6     3     8 ar  
     7     3    32 1   
     8     4     6 ar  
     9     4    10 ar  
    10     4    34 1   
    11     5    12 ar  
    12     5    33 1   
    13     6    13 ar  
    14     6    35 1   
    15     7    11 2   
    16     7    23 1   
    17     7    36 1   
    18     8    11 1   
    19     8    12 ar  
    20     9    10 ar  
    21     9    14 ar  
    22     9    57 1   
    23    10    18 1   
    24    11    17 1   
    25    12    23 1   
    26    13    14 ar  
    27    13    28 1   
    28    14    29 1   
    29    15    17 1   
    30    15    24 1   
    31    15    27 2   
    32    16    28 1   
    33    16    29 1   
    34    16    43 1   
    35    16    44 1   
    36    17    40 1   
    37    17    41 1   
    38    18    22 1   
    39    18    38 1   
    40    18    39 1   
    41    19    21 1   
    42    19    22 1   
    43    19    53 1   
    44    19    54 1   
    45    20    22 1   
    46    20    24 1   
    47    20    55 1   
    48    20    56 1   
    49    21    48 1   
    50    21    58 1   
    51    21    59 1   
    52    22    52 1   
    53    23    37 1   
    54    24    42 1   
    55    25    57 1   
    56    26    57 1   
    57    45    58 1   
    58    46    58 1   
    59    47    58 1   
    60    49    59 1   
    61    50    59 1   
    62    51    59 1   
@<TRIPOS>SUBSTRUCTURE
     1 VXO         1 TEMP              0 ****  ****    0 ROOT
