@<TRIPOS>MOLECULE
VXQ
   23    24     1     0     0
SMALL
bcc


@<TRIPOS>ATOM
      1 N            0.0000     0.0000     0.0000 nz         1 VXQ       0.068400
      2 C5           2.9960     0.0000     4.9170 c3         1 VXQ       0.007900
      3 CB           1.4690     0.0000     0.0000 c3         1 VXQ       0.050100
      4 OE           3.3650     2.3000     4.7810 os         1 VXQ      -0.275900
      5 CG           1.9710     0.6690     1.2530 ca         1 VXQ      -0.265300
      6 CM           3.0450     1.2960     5.7600 c3         1 VXQ       0.212400
      7 CZ           2.9060     1.9020     3.5630 ca         1 VXQ       0.205100
      8 CD1          2.2030    -0.0790     2.3940 ca         1 VXQ      -0.010000
      9 CD2          2.2030     2.0320     1.2680 ca         1 VXQ      -0.030000
     10 CE1          2.6630     0.5350     3.5380 ca         1 VXQ      -0.181300
     11 CE2          2.6670     2.6490     2.4120 ca         1 VXQ      -0.112000
     12 HN          -0.3340     0.9330    -0.1380 hn         1 VXQ       0.222800
     13 HNA         -0.3340    -0.3470     0.8780 hn         1 VXQ       0.222800
     14 HB           1.8300    -1.0210    -0.0340 hx         1 VXQ       0.079200
     15 HBA          1.8300     0.5400    -0.8670 hx         1 VXQ       0.079200
     16 HM           2.0720     1.4950     6.1910 h1         1 VXQ       0.034200
     17 HMA          3.8380     1.2300     6.4950 h1         1 VXQ       0.034200
     18 HD1          2.0550    -1.1520     2.3780 ha         1 VXQ       0.107000
     19 HD2          2.0230     2.6190     0.3750 ha         1 VXQ       0.108000
     20 HE2          2.8460     3.7170     2.4150 ha         1 VXQ       0.135000
     21 H5           3.9690    -0.4760     4.9080 hc         1 VXQ       0.042700
     22 HN3         -0.3340    -0.5800    -0.7450 hn         1 VXQ       0.222800
     23 H5A          2.2000    -0.6440     5.2700 hc         1 VXQ       0.042700
@<TRIPOS>BOND
     1     1     3 1   
     2     1    12 1   
     3     1    13 1   
     4     1    22 1   
     5     2     6 1   
     6     2    10 1   
     7     2    21 1   
     8     2    23 1   
     9     3     5 1   
    10     3    14 1   
    11     3    15 1   
    12     4     6 1   
    13     4     7 1   
    14     5     8 ar  
    15     5     9 ar  
    16     6    16 1   
    17     6    17 1   
    18     7    10 ar  
    19     7    11 ar  
    20     8    10 ar  
    21     8    18 1   
    22     9    11 ar  
    23     9    19 1   
    24    11    20 1   
@<TRIPOS>SUBSTRUCTURE
     1 VXQ         1 TEMP              0 ****  ****    0 ROOT
