@<TRIPOS>MOLECULE
VXR
   44    47     1     0     0
SMALL
bcc


@<TRIPOS>ATOM
      1 C1         -0.1750   -0.1400    0.1440 cc        1 VXR      0.349000
      2 C2          1.0000    0.6060    0.2140 cd        1 VXR     -0.281300
      3 C3          1.4010    0.6250    1.5860 cd        1 VXR     -0.110300
      4 C4          0.4520   -0.1130    2.3020 cc        1 VXR      0.170500
      5 O5         -0.5330   -0.5920    1.4110 os        1 VXR     -0.369800
      6 C6         -1.0710   -0.5270   -0.9580 c3        1 VXR     -0.133700
      7 C7         -0.5980    0.0090   -2.2870 c3        1 VXR     -0.099100
      8 C8          0.3650   -0.4140    3.6790 ce        1 VXR      0.023200
      9 C9         -0.5790   -1.1430    4.3220 cd        1 VXR     -0.252600
     10 S10        -1.9610   -1.9290    3.6960 ss        1 VXR      0.017200
     11 C11        -2.3650   -2.5110    5.2870 cc        1 VXR      0.461100
     12 N12        -1.5830   -2.1790    6.2850 nd        1 VXR     -0.590100
     13 C13        -0.4880   -1.3530    5.7960 c         1 VXR      0.693700
     14 N14        -3.5440   -3.3670    5.4500 n4        1 VXR     -0.704000
     15 C15        -4.2930   -3.1530    6.7630 c3        1 VXR      0.207500
     16 C16        -4.9160   -1.7950    6.8060 ca        1 VXR     -0.223300
     17 C17        -5.3290   -4.2310    6.8970 cc        1 VXR      0.298800
     18 N18        -6.1000   -4.4990    8.0380 na        1 VXR     -0.128400
     19 N19        -6.9050   -5.5290    7.7500 nc        1 VXR     -0.137800
     20 N20        -6.6710   -5.8930    6.5370 nd        1 VXR     -0.004000
     21 N21        -5.7340   -5.1520    5.9620 nd        1 VXR     -0.391000
     22 C22        -4.3540   -0.8090    7.6280 ca        1 VXR     -0.065000
     23 C23        -4.9310    0.4540    7.7000 ca        1 VXR     -0.165500
     24 C24        -6.0820    0.7380    6.9360 ca        1 VXR      0.193900
     25 C25        -6.6470   -0.2540    6.1060 ca        1 VXR     -0.165500
     26 C26        -6.0610   -1.5110    6.0480 ca        1 VXR     -0.065000
     27 F          -6.6450    1.9600    6.9980 f         1 VXR     -0.101900
     28 O28         0.3760   -0.9060    6.5460 o         1 VXR     -0.440100
     29 H2          1.5160    1.0840   -0.6170 ha        1 VXR      0.189000
     30 H3          2.2830    1.1220    1.9930 ha        1 VXR      0.183000
     31 H61        -1.1330   -1.6510   -0.9960 hc        1 VXR      0.077200
     32 H62        -2.1060   -0.1460   -0.7350 hc        1 VXR      0.077200
     33 H71         0.4190   -0.3810   -2.5340 hc        1 VXR      0.053367
     34 H72        -1.3050   -0.3090   -3.0910 hc        1 VXR      0.053367
     35 H73        -0.5550    1.1250   -2.2730 hc        1 VXR      0.053367
     36 H8          1.1920    0.0130    4.2950 ha        1 VXR      0.186000
     37 HN14       -3.2370   -4.3520    5.3990 hn        1 VXR      0.479800
     38 H15        -3.5320   -3.2720    7.6000 hx        1 VXR      0.148700
     39 HN18       -6.1130   -4.0320    8.9200 hn        1 VXR      0.360700
     40 H22        -3.4510   -1.0250    8.2240 ha        1 VXR      0.157000
     41 H23        -4.4990    1.2340    8.3480 ha        1 VXR      0.179000
     42 H25        -7.5490   -0.0230    5.5180 ha        1 VXR      0.179000
     43 H26        -6.5150   -2.2890    5.4120 ha        1 VXR      0.157000
     44 H142       -4.1920   -3.1770    4.6700 hn        1 VXR      0.479800
@<TRIPOS>BOND
     1    1    2 2
     2    1    5 1
     3    1    6 1
     4    2    3 1
     5    2   29 1
     6    3    4 2
     7    3   30 1
     8    4    5 1
     9    4    8 1
    10    6    7 1
    11    6   31 1
    12    6   32 1
    13    7   33 1
    14    7   34 1
    15    7   35 1
    16    8    9 2
    17    8   36 1
    18    9   10 1
    19    9   13 1
    20   10   11 1
    21   11   12 2
    22   11   14 1
    23   12   13 1
    24   13   28 2
    25   14   15 1
    26   14   37 1
    27   14   44 1
    28   15   16 1
    29   15   17 1
    30   15   38 1
    31   16   22 ar
    32   16   26 ar
    33   17   18 1
    34   17   21 2
    35   18   19 1
    36   18   39 1
    37   19   20 2
    38   20   21 1
    39   22   23 ar
    40   22   40 1
    41   23   24 ar
    42   23   41 1
    43   24   25 ar
    44   24   27 1
    45   25   26 ar
    46   25   42 1
    47   26   43 1
@<TRIPOS>SUBSTRUCTURE
     1 VXR         1 TEMP              0 ****  ****    0 ROOT
