@<TRIPOS>MOLECULE
VXU
   27    28     1     0     0
SMALL
bcc


@<TRIPOS>ATOM
      1 C2           0.0000     0.0000     0.0000 ca         1 VXU      -0.076000
      2 C3           1.3830     0.0000     0.0000 ca         1 VXU      -0.065000
      3 C1          -0.6950     0.0000     1.1960 ca         1 VXU      -0.047000
      4 C4           2.0800     0.0000     1.1960 ca         1 VXU      -0.216300
      5 C11         -0.0010     0.0000     2.3940 ca         1 VXU       0.112100
      6 C5           1.3860     0.0000     2.3940 ca         1 VXU       0.104100
      7 C8           0.6930    -1.1730     5.2060 c3         1 VXU      -0.103400
      8 C9          -0.5700    -1.1910     4.3600 c3         1 VXU       0.220400
      9 C7           1.9570    -1.1910     4.3590 c3         1 VXU       0.213400
     10 C12          3.5860    -0.0010     1.1930 c3         1 VXU       0.043100
     11 N13          4.0760    -1.3650     1.4330 nz         1 VXU       0.066400
     12 O10         -0.6750     0.0020     3.5810 os         1 VXU      -0.298900
     13 O6           2.0610     0.0020     3.5800 os         1 VXU      -0.328900
     14 H2          -0.5400     0.0000    -0.9390 ha         1 VXU       0.129000
     15 H3           1.9220    -0.0000    -0.9390 ha         1 VXU       0.113000
     16 H1          -1.7790     0.0000     1.1950 ha         1 VXU       0.137000
     17 H121         3.9460     0.3480     0.2320 hx         1 VXU       0.087200
     18 H122         3.9490     0.6560     1.9740 hx         1 VXU       0.087200
     19 H81C         0.6930    -0.2770     5.8150 hc         1 VXU       0.050200
     20 H82C         0.6940    -2.0430     5.8520 hc         1 VXU       0.050200
     21 H91C        -0.5400    -2.0470     3.6960 h1         1 VXU       0.020700
     22 H92C        -1.4320    -1.2680     5.0110 h1         1 VXU       0.020700
     23 H71C         1.9090    -2.0390     3.6870 h1         1 VXU       0.004200
     24 H72C         2.8140    -1.2460     5.0200 h1         1 VXU       0.004200
     25 H131         4.4120    -1.4380     2.3730 hn         1 VXU       0.223467
     26 H132         3.3290    -2.0170     1.2940 hn         1 VXU       0.223467
     27 H133         4.8200    -1.5690     0.7960 hn         1 VXU       0.223467
@<TRIPOS>BOND
     1     1     2 ar  
     2     1     3 ar  
     3     1    14 1   
     4     2     4 ar  
     5     2    15 1   
     6     3     5 ar  
     7     3    16 1   
     8     4     6 ar  
     9     4    10 1   
    10     5     6 ar  
    11     5    12 1   
    12     6    13 1   
    13     7     8 1   
    14     7     9 1   
    15     7    19 1   
    16     7    20 1   
    17     8    12 1   
    18     8    21 1   
    19     8    22 1   
    20     9    13 1   
    21     9    23 1   
    22     9    24 1   
    23    10    11 1   
    24    10    17 1   
    25    10    18 1   
    26    11    25 1   
    27    11    26 1   
    28    11    27 1   
@<TRIPOS>SUBSTRUCTURE
     1 VXU         1 TEMP              0 ****  ****    0 ROOT
