@<TRIPOS>MOLECULE
molecule
   23    23     1     0     0
SMALL
bcc


@<TRIPOS>ATOM
      1 C1           0.0000     0.0000     0.0000 ca         1 VXX      -0.144600
      2 CO1          1.3950     0.0000     0.0000 ca         1 VXX      -0.060000
      3 CO2         -0.6970    -0.0000     1.2080 ca         1 VXX      -0.077000
      4 CM1          2.0930     0.0000     1.2070 ca         1 VXX      -0.181000
      5 CM2          0.0010    -0.0000     2.4160 ca         1 VXX       0.079100
      6 OM          -0.6900    -0.0000     3.5890 os         1 VXX      -0.344900
      7 CZ           1.3960    -0.0000     2.4150 ca         1 VXX       0.122100
      8 CC          -0.7280     0.0000    -1.2590 c          1 VXX       0.652700
      9 CV          -1.0190    -1.2710     4.1490 c3         1 VXX       0.138700
     10 O1          -0.3120     0.5110    -2.3080 o          1 VXX      -0.532000
     11 O2          -1.9330    -0.6370    -1.1440 os         1 VXX      -0.423900
     12 O3           2.0890    -0.0000     3.5880 oh         1 VXX      -0.510100
     13 C9          -2.7440    -0.7040    -2.3220 c3         1 VXX       0.128700
     14 HO1          1.9360     0.0000    -0.9380 ha         1 VXX       0.155000
     15 HO2         -1.7800    -0.0000     1.2090 ha         1 VXX       0.162000
     16 HM1          3.1760     0.0000     1.2060 ha         1 VXX       0.148000
     17 HVC1        -0.7890    -1.2690     5.2080 h1         1 VXX       0.038033
     18 HVC2        -2.0760    -1.4640     4.0100 h1         1 VXX       0.038033
     19 HVC3        -0.4430    -2.0430     3.6550 h1         1 VXX       0.038033
     20 H3           2.5570     0.8140     3.6770 ho         1 VXX       0.428000
     21 H9C1        -3.6890    -1.1760    -2.0820 h1         1 VXX       0.048367
     22 H9C2        -2.2330    -1.2840    -3.0800 h1         1 VXX       0.048367
     23 H9C3        -2.9240     0.2970    -2.6930 h1         1 VXX       0.048367
@<TRIPOS>BOND
     1     1     2 ar
     2     1     3 ar
     3     1     8 1
     4     2     4 ar
     5     2    14 1
     6     3     5 ar
     7     3    15 1
     8     4     7 ar
     9     4    16 1
    10     5     6 1
    11     5     7 ar
    12     6     9 1
    13     7    12 1
    14     8    10 2
    15     8    11 1
    16     9    17 1
    17     9    18 1
    18     9    19 1
    19    11    13 1
    20    12    20 1
    21    13    21 1
    22    13    22 1
    23    13    23 1
@<TRIPOS>SUBSTRUCTURE
     1 VXX         1 TEMP              0 ****  ****    0 ROOT
