@<TRIPOS>MOLECULE
VXX
   23    23     1     0     0
SMALL
bcc


@<TRIPOS>ATOM
      1 C1         -0.1010   -0.1090   -0.0290 ca        1 VXX     -0.157600
      2 CO1         1.2940    0.0290   -0.0050 ca        1 VXX     -0.046000
      3 CO2        -0.8210   -0.2240    1.1660 ca        1 VXX     -0.050000
      4 CM1         1.9740    0.0530    1.2070 ca        1 VXX     -0.219000
      5 CM2        -0.1450   -0.1930    2.3900 ca        1 VXX      0.056100
      6 OM         -0.9120   -0.1800    3.5430 os        1 VXX     -0.325900
      7 CZ          1.2610   -0.0540    2.4110 ca        1 VXX      0.130100
      8 CC         -0.7780   -0.1300   -1.3300 c         1 VXX      0.649700
      9 CV         -0.6700   -1.2760    4.4250 c3        1 VXX      0.113700
     10 O1         -0.2700   -0.0330   -2.4520 o         1 VXX     -0.547000
     11 O2         -2.1390   -0.2800   -1.2590 os        1 VXX     -0.437900
     12 O3          1.8810   -0.0450    3.6350 oh        1 VXX     -0.487100
     13 C9         -2.8420   -0.3010   -2.5020 c3        1 VXX      0.128700
     14 HO1         1.8440    0.1170   -0.9570 ha        1 VXX      0.161000
     15 HO2        -1.9180   -0.3250    1.1510 ha        1 VXX      0.172000
     16 HM1         3.0680    0.1630    1.2260 ha        1 VXX      0.143000
     17 HVC1       -0.8860   -2.2440    3.9120 h1        1 VXX      0.046033
     18 HVC2       -1.3930   -1.0990    5.2610 h1        1 VXX      0.046033
     19 HVC3        0.3820   -1.2560    4.7980 h1        1 VXX      0.046033
     20 H3          2.8300    0.0910    3.4910 ho        1 VXX      0.425000
     21 H9C1       -2.4900   -1.1590   -3.1240 h1        1 VXX      0.051700
     22 H9C2       -3.9100   -0.4260   -2.1970 h1        1 VXX      0.051700
     23 H9C3       -2.6810    0.6590   -3.0470 h1        1 VXX      0.051700
@<TRIPOS>BOND
     1    1    2 ar  
     2    1    3 ar  
     3    1    8 1   
     4    2    4 ar  
     5    2   14 1   
     6    3    5 ar  
     7    3   15 1   
     8    4    7 ar  
     9    4   16 1   
    10    5    6 1   
    11    5    7 ar  
    12    6    9 1   
    13    7   12 1   
    14    8   10 2   
    15    8   11 1   
    16    9   17 1   
    17    9   18 1   
    18    9   19 1   
    19   11   13 1   
    20   12   20 1   
    21   13   21 1   
    22   13   22 1   
    23   13   23 1   
@<TRIPOS>SUBSTRUCTURE
     1 VXX         1 TEMP              0 ****  ****    0 ROOT
