@<TRIPOS>MOLECULE
VYA
   45    46     1     0     0
SMALL
bcc


@<TRIPOS>ATOM
      1 C2           0.0000     0.0000     0.0000 ca         1 VYA      -0.154000
      2 C4          -0.0110    -0.0070     2.4130 ca         1 VYA      -0.154000
      3 C5           1.3610    -0.0020     2.4250 ca         1 VYA      -0.065000
      4 C6           1.3710     0.0000     0.0000 ca         1 VYA      -0.065000
      5 C3           4.0930     2.4370    -6.2260 c3         1 VYA       0.002900
      6 C10          5.6120     0.4530    -6.2320 c3         1 VYA       0.002900
      7 C20          4.3970     1.0910    -4.1440 c3         1 VYA      -0.051400
      8 C16          4.4730    -0.3290    -3.5780 c3         1 VYA      -0.055800
      9 N            3.2250    -1.0430    -3.8780 nz         1 VYA      -0.043600
     10 C14          4.6690    -0.2650    -2.0850 cc         1 VYA       0.220900
     11 N15          3.7060    -0.1420    -1.2260 nd         1 VYA      -0.603300
     12 N13          5.8840    -0.3350    -1.4630 n          1 VYA       0.095700
     13 C17          7.1810    -0.4770    -2.1300 c3         1 VYA      -0.101000
     14 C            7.5090    -1.9390    -2.2830 c          1 VYA       0.952600
     15 O19          8.6580    -2.3130    -2.8700 o          1 VYA      -0.862300
     16 C12          5.6860    -0.2460    -0.1310 c          1 VYA       0.604700
     17 O25          6.5310    -0.2710     0.7460 o          1 VYA      -0.583500
     18 C9           4.2290    -0.1170     0.0370 cd         1 VYA      -0.077600
     19 C7           2.0700     0.0000     1.2160 ca         1 VYA      -0.112800
     20 C1          -0.6980    -0.0020     1.2040 ca         1 VYA       0.149100
     21 O3          -2.0550     0.0040     1.1980 oh         1 VYA      -0.501100
     22 OXT          6.7400    -2.7770    -1.8770 o          1 VYA      -0.862300
     23 H1          -0.5410     0.0020    -0.9390 ha         1 VYA       0.112000
     24 H2          -0.5590    -0.0090     3.3470 ha         1 VYA       0.112000
     25 H3           1.8950    -0.0040     3.3670 ha         1 VYA       0.129000
     26 H4           1.9130     0.0020    -0.9380 ha         1 VYA       0.129000
     27 H5           4.0700     0.0080     2.1630 ha         1 VYA       0.124000
     28 H6           4.9440     3.0590    -5.9770 hc         1 VYA       0.017200
     29 H7           3.1960     2.8620    -5.7900 hc         1 VYA       0.017200
     30 H8           3.9830     2.3890    -7.3030 hc         1 VYA       0.017200
     31 H9           3.4800     0.3950    -5.9590 hc         1 VYA      -0.006300
     32 H10          6.4490     0.8170    -5.6480 hc         1 VYA       0.017200
     33 H11          5.5950    -0.6300    -6.2020 hc         1 VYA       0.017200
     34 H12          5.7160     0.7840    -7.2580 hc         1 VYA       0.017200
     35 H13          3.5180     1.5890    -3.7520 hc         1 VYA       0.057200
     36 H14          5.2830     1.6430    -3.8550 hc         1 VYA       0.057200
     37 H15          5.3070    -0.8530    -4.0300 hx         1 VYA       0.126700
     38 H16          2.6150    -0.5680    -4.5140 hn         1 VYA       0.263800
     39 H17          3.9570    -1.5660    -4.3160 hn         1 VYA       0.263800
     40 H19          7.9480     0.0050    -1.5360 h1         1 VYA       0.039700
     41 H20          7.1370    -0.0120    -3.1080 h1         1 VYA       0.039700
     42 H21         -2.3730    -0.8830     1.1760 ho         1 VYA       0.406000
     43 C8           3.5340     0.0010     1.2210 ce         1 VYA       0.107800
     44 HN3          2.8070    -1.5010    -3.0920 hn         1 VYA       0.263800
     45 C21          4.3100     1.0290    -5.6700 c3         1 VYA      -0.066700
@<TRIPOS>BOND
     1     1     4 ar  
     2     1    20 ar  
     3     1    23 1   
     4     2     3 ar  
     5     2    20 ar  
     6     2    24 1   
     7     3    19 ar  
     8     3    25 1   
     9     4    19 ar  
    10     4    26 1   
    11     5    28 1   
    12     5    29 1   
    13     5    30 1   
    14     5    45 1   
    15     6    32 1   
    16     6    33 1   
    17     6    34 1   
    18     6    45 1   
    19     7     8 1   
    20     7    35 1   
    21     7    36 1   
    22     7    45 1   
    23     8     9 1   
    24     8    10 1   
    25     8    37 1   
    26     9    38 1   
    27     9    39 1   
    28     9    44 1   
    29    10    11 2   
    30    10    12 1   
    31    11    18 1   
    32    12    13 1   
    33    12    16 1   
    34    13    14 1   
    35    13    40 1   
    36    13    41 1   
    37    14    15 1   
    38    14    22 1   
    39    16    17 2   
    40    16    18 1   
    41    18    43 2   
    42    19    43 1   
    43    20    21 1   
    44    21    42 1   
    45    27    43 1   
    46    31    45 1   
@<TRIPOS>SUBSTRUCTURE
     1 VYA         1 TEMP              0 ****  ****    0 ROOT
