@<TRIPOS>MOLECULE
molecule
   45    46     1     0     0
SMALL
bcc


@<TRIPOS>ATOM
      1 C2           0.0000     0.0000     0.0000 ca         1 VYA      -0.169500
      2 C4          -0.0110    -0.0070     2.4130 ca         1 VYA      -0.169500
      3 C5           1.3610    -0.0020     2.4250 ca         1 VYA      -0.088000
      4 C6           1.3710     0.0000     0.0000 ca         1 VYA      -0.088000
      5 C3           4.0930     2.4370    -6.2260 c3         1 VYA      -0.093600
      6 C10          5.6120     0.4530    -6.2320 c3         1 VYA      -0.093600
      7 C20          4.3970     1.0910    -4.1440 c3         1 VYA      -0.108400
      8 C16          4.4730    -0.3290    -3.5780 c3         1 VYA       0.095200
      9 N            3.2250    -1.0430    -3.8780 nz         1 VYA      -0.861600
     10 C14          4.6690    -0.2650    -2.0850 cc         1 VYA       0.403900
     11 N15          3.7060    -0.1420    -1.2260 nd         1 VYA      -0.682300
     12 N13          5.8840    -0.3350    -1.4630 n          1 VYA      -0.341300
     13 C17          7.1810    -0.4770    -2.1300 c3         1 VYA      -0.024000
     14 C            7.5090    -1.9390    -2.2830 c          1 VYA       0.863600
     15 O19          8.6580    -2.3130    -2.8700 o          1 VYA      -0.812800
     16 C12          5.6860    -0.2460    -0.1310 c          1 VYA       0.687700
     17 O25          6.5310    -0.2710     0.7460 o          1 VYA      -0.551500
     18 C9           4.2290    -0.1170     0.0370 cd         1 VYA      -0.020600
     19 C7           2.0700     0.0000     1.2160 ca         1 VYA      -0.098800
     20 C1          -0.6980    -0.0020     1.2040 ca         1 VYA       0.128100
     21 O3          -2.0550     0.0040     1.1980 oh         1 VYA      -0.522100
     22 OXT          6.7400    -2.7770    -1.8770 o          1 VYA      -0.812800
     23 H1          -0.5410     0.0020    -0.9390 ha         1 VYA       0.139500
     24 H2          -0.5590    -0.0090     3.3470 ha         1 VYA       0.139500
     25 H3           1.8950    -0.0040     3.3670 ha         1 VYA       0.157000
     26 H4           1.9130     0.0020    -0.9380 ha         1 VYA       0.157000
     27 H5           4.0700     0.0080     2.1630 ha         1 VYA       0.166000
     28 H6           4.9440     3.0590    -5.9770 hc         1 VYA       0.050700
     29 H7           3.9830     2.3890    -7.3030 hc         1 VYA       0.050700
     30 H8           3.1960     2.8620    -5.7900 hc         1 VYA       0.050700
     31 H9           3.4800     0.3950    -5.9590 hc         1 VYA       0.015700
     32 H10          6.4490     0.8170    -5.6480 hc         1 VYA       0.050700
     33 H11          5.7160     0.7840    -7.2580 hc         1 VYA       0.050700
     34 H12          5.5950    -0.6300    -6.2020 hc         1 VYA       0.050700
     35 H13          5.2830     1.6430    -3.8550 hc         1 VYA       0.092200
     36 H14          3.5180     1.5890    -3.7520 hc         1 VYA       0.092200
     37 H15          5.3070    -0.8530    -4.0300 hx         1 VYA       0.148700
     38 H16          2.6150    -0.5680    -4.5140 hn         1 VYA       0.482467
     39 H17          3.9570    -1.5660    -4.3160 hn         1 VYA       0.482467
     40 H19          7.1370    -0.0120    -3.1080 h1         1 VYA       0.063200
     41 H20          7.9480     0.0050    -1.5360 h1         1 VYA       0.063200
     42 H21         -2.3730    -0.8830     1.1780 ho         1 VYA       0.423000
     43 C8           3.5340     0.0010     1.2210 ce         1 VYA       0.045800
     44 HN3          2.8070    -1.5010    -3.0920 hn         1 VYA       0.482467
     45 C21          4.3100     1.0290    -5.6700 c3         1 VYA      -0.095700
@<TRIPOS>BOND
     1     9     8 1
     2    13    12 1
     3    13    14 1
     4    15    14 1
     5    17    16 2
     6    12    16 1
     7    12    10 1
     8     8    10 1
     9     8     7 1
    10    16    18 1
    11    10    11 2
    12    45     6 1
    13    45     7 1
    14    45     5 1
    15    11    18 1
    16    18    43 2
    17    43    19 1
    18     4    19 ar
    19     4     1 ar
    20    19     3 ar
    21     1    20 ar
    22     3     2 ar
    23    20     2 ar
    24    20    21 1
    25    14    22 1
    26     1    23 1
    27     2    24 1
    28     3    25 1
    29     4    26 1
    30    43    27 1
    31     5    28 1
    32     5    29 1
    33     5    30 1
    34    45    31 1
    35     6    32 1
    36     6    33 1
    37     6    34 1
    38     7    35 1
    39     7    36 1
    40     8    37 1
    41     9    38 1
    42     9    39 1
    43    13    40 1
    44    13    41 1
    45    21    42 1
    46    44     9 1
@<TRIPOS>SUBSTRUCTURE
     1 VYA         1 TEMP              0 ****  ****    0 ROOT
