@<TRIPOS>MOLECULE
VYD
   68    70     1     0     0
SMALL
bcc


@<TRIPOS>ATOM
      1 C1           0.0000     0.0000     0.0000 ca         1 VYD      -0.097000
      2 C2           1.3820     0.0000     0.0000 ca         1 VYD      -0.080000
      3 C3          -0.6930     0.0010     1.1950 ca         1 VYD      -0.070000
      4 C4           2.0760     0.0000     1.1960 ca         1 VYD      -0.097000
      5 C5          -0.0000    -0.0030     2.3980 ca         1 VYD      -0.070400
      6 C6           1.3890     0.0010     2.3950 ca         1 VYD      -0.020600
      7 C7          -1.0140     1.1730     4.1650 c          1 VYD       0.620500
      8 C9          -1.7350     1.2860     5.4780 c3         1 VYD       0.071800
      9 C10         -4.6680     1.1430     8.6070 c3         1 VYD      -0.007400
     10 C11         -6.9530     1.4880     7.6590 c3         1 VYD       0.151800
     11 C12         -5.2470     0.4640     6.2750 c3         1 VYD       0.145800
     12 C13         -1.0540    -1.2840     4.2130 c3         1 VYD       0.056000
     13 C14         -5.8940     2.0620     8.6030 c3         1 VYD      -0.120700
     14 C15         -4.1360     1.0080     7.1780 c3         1 VYD      -0.059700
     15 C16         -1.3910    -1.0920     5.6950 c3         1 VYD       0.101200
     16 C17         -0.1190    -0.7420     6.4690 c3         1 VYD      -0.026600
     17 C18         -1.9950    -2.3810     6.2550 c3         1 VYD      -0.026600
     18 C19         -8.8780     4.6950    13.9190 c3         1 VYD       0.003400
     19 C20        -11.2030     4.8040    13.0070 c3         1 VYD       0.003400
     20 C21         -2.9490     0.0440     7.1630 c3         1 VYD       0.136800
     21 C22         -9.3200     3.9190    11.5860 c3         1 VYD      -0.038400
     22 C23         -8.0960     3.0010    11.5910 c3         1 VYD       0.043000
     23 C24         -9.8930     4.0110    13.0010 c3         1 VYD      -0.048700
     24 N25         -6.3960     1.3790     6.3050 n7         1 VYD      -0.578200
     25 N26         -0.6990    -0.0020     3.6100 n          1 VYD      -0.019000
     26 N27         -2.3670     0.0030     5.8150 n3         1 VYD      -0.534600
     27 Cl           2.2620     0.0030     3.8960 cl         1 VYD      -0.022400
     28 H1          -0.5410     0.0020    -0.9390 ha         1 VYD       0.106000
     29 H2           1.9230    -0.0010    -0.9390 ha         1 VYD       0.106000
     30 H3          -1.7760    -0.0000     1.1940 ha         1 VYD       0.113000
     31 H4           3.1600     0.0020     1.1940 ha         1 VYD       0.116000
     32 H5          -2.4970     2.0520     5.4030 h1         1 VYD       0.047700
     33 H6          -1.0270     1.5510     6.2540 h1         1 VYD       0.047700
     34 H7          -3.8990     1.5700     9.2400 hc         1 VYD       0.030700
     35 H8          -4.9510     0.1660     8.9810 hc         1 VYD       0.030700
     36 H9          -7.2490     0.5050     8.0060 h1         1 VYD       0.007700
     37 H10         -7.8140     2.1450     7.6430 h1         1 VYD       0.007700
     38 H11         -5.5550    -0.5110     6.6320 h1         1 VYD       0.016200
     39 H12         -4.8780     0.3830     5.2600 h1         1 VYD       0.016200
     40 H13         -1.9150    -1.6940     3.7000 h1         1 VYD       0.026700
     41 H14         -0.2170    -1.9660     4.1220 h1         1 VYD       0.026700
     42 H15         -5.6030     3.0470     8.2610 hc         1 VYD       0.049700
     43 H16         -3.8230     1.9810     6.8170 hc         1 VYD       0.044700
     44 H17          0.5840    -1.5640     6.3990 hc         1 VYD       0.018867
     45 H18          0.3270     0.1500     6.0460 hc         1 VYD       0.018867
     46 H19         -0.3660    -0.5650     7.5080 hc         1 VYD       0.018867
     47 H20         -1.9310    -2.3690     7.3370 hc         1 VYD       0.018867
     48 H21         -1.4490    -3.2330     5.8700 hc         1 VYD       0.018867
     49 H22         -3.0340    -2.4520     5.9560 hc         1 VYD       0.018867
     50 H23         -9.3950     5.1460    14.7570 hc         1 VYD       0.004867
     51 H24         -8.1690     3.9610    14.2840 hc         1 VYD       0.004867
     52 H25         -8.3500     5.4620    13.3660 hc         1 VYD       0.004867
     53 H26        -11.0100     5.8220    12.6910 hc         1 VYD       0.004867
     54 H27        -11.9080     4.3420    12.3280 hc         1 VYD       0.004867
     55 H28        -11.6160     4.8090    14.0090 hc         1 VYD       0.004867
     56 H29         -3.2850    -0.9480     7.4410 h1         1 VYD       0.025200
     57 H30         -2.2000     0.3820     7.8690 h1         1 VYD       0.025200
     58 H31        -10.0710     3.5160    10.9170 hc         1 VYD       0.018200
     59 H32         -9.0290     4.9060    11.2480 hc         1 VYD       0.018200
     60 H33         -8.3860     2.0130    11.9280 h1         1 VYD       0.029700
     61 H34         -7.3440     3.4040    12.2590 h1         1 VYD       0.029700
     62 H35        -10.1020     3.0150    13.3710 hc         1 VYD       0.027700
     63 H36         -7.1030     1.0470     5.6790 hn         1 VYD       0.253800
     64 H39         -7.9540     3.4490     9.4950 hn         1 VYD       0.177500
     65 O29         -0.7080     2.1920     3.5820 o          1 VYD      -0.678500
     66 C8          -6.4580     2.1530     9.9970 c          1 VYD       0.576100
     67 N28         -7.5470     2.9120    10.2350 ns         1 VYD      -0.203900
     68 O30         -5.9340     1.5440    10.9050 o          1 VYD      -0.648100
@<TRIPOS>BOND
     1     1     2 ar  
     2     1     3 ar  
     3     1    28 1   
     4     2     4 ar  
     5     2    29 1   
     6     3     5 ar  
     7     3    30 1   
     8     4     6 ar  
     9     4    31 1   
    10     5     6 ar  
    11     5    25 1   
    12     6    27 1   
    13     7     8 1   
    14     7    25 1   
    15     7    65 2   
    16     8    26 1   
    17     8    32 1   
    18     8    33 1   
    19     9    13 1   
    20     9    14 1   
    21     9    34 1   
    22     9    35 1   
    23    10    13 1   
    24    10    24 1   
    25    10    36 1   
    26    10    37 1   
    27    11    14 1   
    28    11    24 1   
    29    11    38 1   
    30    11    39 1   
    31    12    15 1   
    32    12    25 1   
    33    12    40 1   
    34    12    41 1   
    35    13    42 1   
    36    13    66 1   
    37    14    20 1   
    38    14    43 1   
    39    15    16 1   
    40    15    17 1   
    41    15    26 1   
    42    16    44 1   
    43    16    45 1   
    44    16    46 1   
    45    17    47 1   
    46    17    48 1   
    47    17    49 1   
    48    18    23 1   
    49    18    50 1   
    50    18    51 1   
    51    18    52 1   
    52    19    23 1   
    53    19    53 1   
    54    19    54 1   
    55    19    55 1   
    56    20    26 1   
    57    20    56 1   
    58    20    57 1   
    59    21    22 1   
    60    21    23 1   
    61    21    58 1   
    62    21    59 1   
    63    22    60 1   
    64    22    61 1   
    65    22    67 1   
    66    23    62 1   
    67    24    63 1   
    68    64    67 1   
    69    66    67 1   
    70    66    68 2   
@<TRIPOS>SUBSTRUCTURE
     1 VYD         1 TEMP              0 ****  ****    0 ROOT
