@<TRIPOS>MOLECULE
molecule
   65    67     1     0     0
SMALL
bcc


@<TRIPOS>ATOM
      1 C1           0.0000     0.0000     0.0000 c3         1 VYE      -0.143700
      2 C2           1.5300     0.0000     0.0000 c3         1 VYE       0.162800
      3 N3           2.0210     0.0000     1.3840 n7         1 VYE      -0.824200
      4 C4           1.5880    -1.2060     2.1010 c3         1 VYE       0.144800
      5 C5           0.0600    -1.2420     2.1640 c3         1 VYE       0.166500
      6 C6          -0.5060    -1.2400     0.7410 c3         1 VYE      -0.071400
      7 N7          -0.3750    -2.4580     2.8630 n3         1 VYE      -0.717600
      8 C8          -1.6920    -2.8990     2.3860 c3         1 VYE       0.089800
      9 C9          -2.1830    -4.0490     3.2180 c          1 VYE       0.709500
     10 N10         -1.6670    -4.3460     4.4160 n          1 VYE      -0.397000
     11 C11         -0.5590    -3.6040     5.0100 c3         1 VYE       0.130000
     12 C12         -0.4080    -2.2470     4.3190 c3         1 VYE       0.156200
     13 O13         -3.0830    -4.7370     2.7860 o          1 VYE      -0.631500
     14 C14          0.8940    -1.5820     4.7740 c3         1 VYE      -0.110100
     15 C15         -1.5940    -1.3510     4.6810 c3         1 VYE      -0.110100
     16 C16         -2.2160    -5.4160     5.1330 ca         1 VYE       0.059600
     17 C17         -3.2710    -5.1970     6.0120 ca         1 VYE       0.035400
     18 C18         -3.8100    -6.2560     6.7190 ca         1 VYE      -0.120000
     19 C19         -3.3000    -7.5310     6.5520 ca         1 VYE      -0.117000
     20 C20         -2.2510    -7.7510     5.6780 ca         1 VYE      -0.125000
     21 C21         -1.7120    -6.6970     4.9640 ca         1 VYE      -0.105000
     22 Cl1         -3.9100    -3.5970     6.2230 cl         1 VYE      -0.105400
     23 C23         -0.5030    -0.0220    -1.4200 c          1 VYE       0.658100
     24 O24         -1.2000    -0.9380    -1.8030 o          1 VYE      -0.605100
     25 N25         -0.1800     0.9770    -2.2650 ns         1 VYE      -0.588900
     26 C26         -0.6690     0.9560    -3.6460 c3         1 VYE       0.109000
     27 C27         -0.1610     2.1950    -4.3860 c3         1 VYE      -0.096400
     28 C28         -0.6720     2.1730    -5.8280 c3         1 VYE      -0.073700
     29 C29         -0.2690     3.4700    -6.5320 c3         1 VYE      -0.089600
     30 C30         -0.0620     0.9810    -6.5670 c3         1 VYE      -0.089600
     31 H1          -0.3590     0.8900     0.5020 hc         1 VYE       0.077700
     32 H2           1.8900    -0.8860    -0.5090 h1         1 VYE       0.037200
     33 H3           1.8900     0.8860    -0.5090 h1         1 VYE       0.037200
     34 H4           3.0210     0.0470     1.3830 hn         1 VYE       0.359800
     35 H6           1.9890    -1.1900     3.1070 h1         1 VYE       0.050700
     36 H7           1.9470    -2.0840     1.5780 h1         1 VYE       0.050700
     37 H8          -0.2990    -0.3670     2.6940 h1         1 VYE       0.046700
     38 H9          -1.5890    -1.2190     0.7830 hc         1 VYE       0.067200
     39 H10         -0.1760    -2.1310     0.2200 hc         1 VYE       0.067200
     40 H12         -1.6110    -3.2140     1.3520 h1         1 VYE       0.078700
     41 H13         -2.3940    -2.0770     2.4620 h1         1 VYE       0.078700
     42 H14         -0.7560    -3.4490     6.0640 h1         1 VYE       0.053200
     43 H15          0.3560    -4.1710     4.8890 h1         1 VYE       0.053200
     44 H16          0.9420    -1.5850     5.8560 hc         1 VYE       0.048200
     45 H17          0.9220    -0.5610     4.4140 hc         1 VYE       0.048200
     46 H18          1.7380    -2.1300     4.3730 hc         1 VYE       0.048200
     47 H19         -1.6800    -1.2820     5.7590 hc         1 VYE       0.048200
     48 H20         -1.4400    -0.3620     4.2670 hc         1 VYE       0.048200
     49 H21         -2.5040    -1.7750     4.2730 hc         1 VYE       0.048200
     50 H22         -4.6320    -6.0870     7.4040 ha         1 VYE       0.145000
     51 H23         -3.7230    -8.3590     7.1080 ha         1 VYE       0.137000
     52 H24         -1.8560    -8.7510     5.5480 ha         1 VYE       0.136000
     53 H25         -0.8900    -6.8710     4.2800 ha         1 VYE       0.146000
     54 H26          0.3630     1.7530    -1.9380 hn         1 VYE       0.313500
     55 H27         -0.3070     0.0650    -4.1440 h1         1 VYE       0.055700
     56 H28         -1.7520     0.9550    -3.6460 h1         1 VYE       0.055700
     57 H29         -0.5230     3.0870    -3.8890 hc         1 VYE       0.044700
     58 H30          0.9220     2.1970    -4.3870 hc         1 VYE       0.044700
     59 H31         -1.7510     2.0830    -5.8270 hc         1 VYE       0.053700
     60 H32          0.8120     3.5420    -6.5650 hc         1 VYE       0.036200
     61 H33         -0.6620     3.4700    -7.5410 hc         1 VYE       0.036200
     62 H34         -0.6700     4.3160    -5.9870 hc         1 VYE       0.036200
     63 H35         -0.6350     0.0880    -6.3490 hc         1 VYE       0.036200
     64 H36         -0.0800     1.1700    -7.6340 hc         1 VYE       0.036200
     65 H37          0.9630     0.8400    -6.2430 hc         1 VYE       0.036200
@<TRIPOS>BOND
     1    19    20 ar
     2    19    18 ar
     3    20    21 ar
     4    18    17 ar
     5    21    16 ar
     6    17    16 ar
     7    17    22 1
     8    16    10 1
     9    11    10 1
    10    11    12 1
    11    10     9 1
    12    14    12 1
    13    12    15 1
    14    12     7 1
    15     9    13 2
    16     9     8 1
    17     7     8 1
    18     7     5 1
    19     4     5 1
    20     4     3 1
    21     5     6 1
    22     3     2 1
    23     6     1 1
    24     2     1 1
    25     1    23 1
    26    23    24 2
    27    23    25 1
    28    25    26 1
    29    26    27 1
    30    29    28 1
    31    30    28 1
    32    27    28 1
    33     1    31 1
    34     2    32 1
    35     2    33 1
    36     3    34 1
    37     4    35 1
    38     4    36 1
    39     5    37 1
    40     6    38 1
    41     6    39 1
    42     8    40 1
    43     8    41 1
    44    11    42 1
    45    11    43 1
    46    14    44 1
    47    14    45 1
    48    14    46 1
    49    15    47 1
    50    15    48 1
    51    15    49 1
    52    18    50 1
    53    19    51 1
    54    20    52 1
    55    21    53 1
    56    25    54 1
    57    26    55 1
    58    26    56 1
    59    27    57 1
    60    27    58 1
    61    28    59 1
    62    29    60 1
    63    29    61 1
    64    29    62 1
    65    30    63 1
    66    30    64 1
    67    30    65 1
@<TRIPOS>SUBSTRUCTURE
     1 VYE         1 TEMP              0 ****  ****    0 ROOT
