@<TRIPOS>MOLECULE
VYF
   78    80     1     0     0
SMALL
bcc


@<TRIPOS>ATOM
      1 C1          0.3220   -0.5470   -0.2040 c3        1 VYF     -0.135700
      2 C2          1.5620   -1.2830   -0.7570 c3        1 VYF      0.173800
      3 N3          2.3990   -1.7400    0.3280 n3        1 VYF     -0.825200
      4 C4          1.7180   -2.6050    1.2720 c3        1 VYF      0.149800
      5 C5          0.4640   -1.9110    1.8870 c3        1 VYF      0.208500
      6 C6         -0.4540   -1.4690    0.7280 c3        1 VYF     -0.117400
      7 N7         -0.1450   -2.7760    2.8840 n3        1 VYF     -0.744600
      8 C8         -1.0600   -3.7560    2.3380 c3        1 VYF      0.105800
      9 C9         -1.6450   -4.7490    3.3460 c         1 VYF      0.703500
     10 N10        -1.7900   -4.3250    4.6620 n         1 VYF     -0.379000
     11 C11        -0.9680   -3.2480    5.1640 c3        1 VYF      0.103000
     12 C12        -0.6350   -2.1340    4.1150 c3        1 VYF      0.196200
     13 O13        -2.0490   -5.8500    2.9350 o         1 VYF     -0.610500
     14 C14        -1.8830   -1.2610    3.9220 c3        1 VYF     -0.110100
     15 C15         0.4410   -1.2630    4.7880 c3        1 VYF     -0.110100
     16 C16        -2.3910   -5.1750    5.6340 ca        1 VYF      0.035600
     17 C17        -3.5130   -4.7400    6.3780 ca        1 VYF      0.019400
     18 C18        -4.0910   -5.5740    7.3390 ca        1 VYF     -0.119000
     19 C19        -3.5770   -6.8490    7.5610 ca        1 VYF     -0.113000
     20 C20        -2.4860   -7.2980    6.8190 ca        1 VYF     -0.118000
     21 C21        -1.8950   -6.4740    5.8660 ca        1 VYF     -0.110000
     22 CL1        -4.2000   -3.2030    6.1250 cl        1 VYF     -0.096400
     23 C23        -0.5630   -0.1270   -1.3540 c         1 VYF      0.545100
     24 O24        -1.5950   -0.6480   -1.7410 o         1 VYF     -0.400100
     25 N25        -0.1000    1.1230   -2.0810 n4        1 VYF     -0.681800
     26 C26        -0.6110    1.2780   -3.4940 c3        1 VYF      0.120500
     27 C27        -1.0170    2.7270   -3.7850 c3        1 VYF     -0.111900
     28 C28         0.4320    0.8290   -4.5210 c3        1 VYF     -0.111900
     29 C29         0.7590   -0.6560   -4.4770 c3        1 VYF     -0.071700
     30 C30        -0.4290   -1.5060   -4.8770 c3        1 VYF     -0.102600
     31 C31         1.9350   -0.9360   -5.3930 c3        1 VYF     -0.102600
     32 C32        -2.1160    3.2840   -2.8920 c3        1 VYF     -0.071700
     33 C33        -2.5160    4.6560   -3.4040 c3        1 VYF     -0.102600
     34 C34        -3.3250    2.3750   -2.8350 c3        1 VYF     -0.102600
     35 H1          0.6510    0.3640    0.3720 hc        1 VYF      0.100700
     36 H2          1.1990   -2.1210   -1.4230 h1        1 VYF      0.038200
     37 H3          2.1750   -0.5770   -1.3850 h1        1 VYF      0.038200
     38 H4          3.2230   -2.1870   -0.0300 hn        1 VYF      0.396800
     39 H6          2.4480   -2.8320    2.1010 h1        1 VYF      0.062200
     40 H7          1.4050   -3.5820    0.8020 h1        1 VYF      0.062200
     41 H8          0.8240   -0.9720    2.4050 h1        1 VYF      0.075700
     42 H9         -0.8120   -2.3610    0.1490 hc        1 VYF      0.072700
     43 H10        -1.3550   -0.9380    1.1310 hc        1 VYF      0.072700
     44 H12        -1.9580   -3.2840    1.8360 h1        1 VYF      0.064200
     45 H13        -0.5030   -4.3630    1.5670 h1        1 VYF      0.064200
     46 H14        -1.5070   -2.7580    6.0230 h1        1 VYF      0.062700
     47 H15         0.0070   -3.6680    5.5500 h1        1 VYF      0.062700
     48 H16        -1.6680   -0.4190    3.2210 hc        1 VYF      0.047200
     49 H17        -2.7350   -1.8600    3.5210 hc        1 VYF      0.047200
     50 H18        -2.1900   -0.8300    4.9050 hc        1 VYF      0.047200
     51 H19         1.4380   -1.7640    4.7730 hc        1 VYF      0.047200
     52 H20         0.5230   -0.2690    4.2870 hc        1 VYF      0.047200
     53 H21         0.1490   -1.0840    5.8520 hc        1 VYF      0.047200
     54 H22        -4.9620   -5.2220    7.9150 ha        1 VYF      0.154000
     55 H23        -4.0400   -7.5010    8.3160 ha        1 VYF      0.147000
     56 H24        -2.0870   -8.3110    6.9830 ha        1 VYF      0.146000
     57 H25        -1.0500   -6.8500    5.2670 ha        1 VYF      0.151000
     58 H26         0.9260    1.1250   -2.0940 hn        1 VYF      0.457300
     59 H27        -1.5310    0.6200   -3.5890 hx        1 VYF      0.133700
     60 H28        -1.3820    2.7450   -4.8500 hc        1 VYF      0.081450
     61 H29        -0.1170    3.3960   -3.7340 hc        1 VYF      0.081450
     62 H30         1.3740    1.4290   -4.4010 hc        1 VYF      0.081450
     63 H31         0.0160    1.0740   -5.5380 hc        1 VYF      0.081450
     64 H32         1.0600   -0.9390   -3.4260 hc        1 VYF      0.020200
     65 H33        -1.2520   -1.4230   -4.1250 hc        1 VYF      0.051367
     66 H34        -0.1260   -2.5800   -4.9440 hc        1 VYF      0.051367
     67 H35        -0.8220   -1.1930   -5.8750 hc        1 VYF      0.051367
     68 H36         1.6790   -0.6760   -6.4490 hc        1 VYF      0.051367
     69 H37         2.8270   -0.3400   -5.0860 hc        1 VYF      0.051367
     70 H38         2.2010   -2.0210   -5.3530 hc        1 VYF      0.051367
     71 H39        -1.7190    3.4210   -1.8450 hc        1 VYF      0.020200
     72 H40        -2.9730    4.5780   -4.4200 hc        1 VYF      0.051367
     73 H41        -3.2650    5.1170   -2.7150 hc        1 VYF      0.051367
     74 H42        -1.6260    5.3280   -3.4630 hc        1 VYF      0.051367
     75 H43        -3.6860    2.1330   -3.8640 hc        1 VYF      0.051367
     76 H44        -3.0870    1.4200   -2.3050 hc        1 VYF      0.051367
     77 H45        -4.1570    2.8800   -2.2840 hc        1 VYF      0.051367
     78 H252       -0.4170    1.9300   -1.5280 hn        1 VYF      0.457300
@<TRIPOS>BOND
     1    1    2 1
     2    1    6 1
     3    1   23 1
     4    1   35 1
     5    2    3 1
     6    2   36 1
     7    2   37 1
     8    3    4 1
     9    3   38 1
    10    4    5 1
    11    4   39 1
    12    4   40 1
    13    5    6 1
    14    5    7 1
    15    5   41 1
    16    6   42 1
    17    6   43 1
    18    7    8 1
    19    7   12 1
    20    8    9 1
    21    8   44 1
    22    8   45 1
    23    9   10 1
    24    9   13 2
    25   10   11 1
    26   10   16 1
    27   11   12 1
    28   11   46 1
    29   11   47 1
    30   12   14 1
    31   12   15 1
    32   14   48 1
    33   14   49 1
    34   14   50 1
    35   15   51 1
    36   15   52 1
    37   15   53 1
    38   16   17 ar
    39   16   21 ar
    40   17   18 ar
    41   17   22 1
    42   18   19 ar
    43   18   54 1
    44   19   20 ar
    45   19   55 1
    46   20   21 ar
    47   20   56 1
    48   21   57 1
    49   23   24 2
    50   23   25 1
    51   25   26 1
    52   25   58 1
    53   25   78 1
    54   26   27 1
    55   26   28 1
    56   26   59 1
    57   27   32 1
    58   27   60 1
    59   27   61 1
    60   28   29 1
    61   28   62 1
    62   28   63 1
    63   29   30 1
    64   29   31 1
    65   29   64 1
    66   30   65 1
    67   30   66 1
    68   30   67 1
    69   31   68 1
    70   31   69 1
    71   31   70 1
    72   32   33 1
    73   32   34 1
    74   32   71 1
    75   33   72 1
    76   33   73 1
    77   33   74 1
    78   34   75 1
    79   34   76 1
    80   34   77 1
@<TRIPOS>SUBSTRUCTURE
     1 VYF         1 TEMP              0 ****  ****    0 ROOT
