@<TRIPOS>MOLECULE
VYI
   47    50     1     0     0
SMALL
bcc


@<TRIPOS>ATOM
      1 C1           0.0000     0.0000     0.0000 ca         1 VYI      -0.062000
      2 C2           1.3820     0.0000     0.0000 ca         1 VYI      -0.129000
      3 C3          -4.0850     1.1560     2.7880 ca         1 VYI      -0.055000
      4 C4          -0.6930    -0.0000     1.1950 ca         1 VYI      -0.163000
      5 C5          -2.7090     1.0440     2.7820 ca         1 VYI      -0.167000
      6 C6          -4.8420     0.3460     3.6070 ca         1 VYI      -0.145000
      7 C7           2.0770     0.0000     1.1960 ca         1 VYI      -0.087000
      8 C8          -1.0190    -6.9090     7.0770 ca         1 VYI      -0.165500
      9 C9           0.6580    -5.8800     5.7070 ca         1 VYI      -0.165500
     10 C10         -1.9840    -6.1100     6.4940 ca         1 VYI       0.030500
     11 C11         -0.3090    -5.0820     5.1260 ca         1 VYI       0.030500
     12 C12         -2.8550    -0.6930     4.4500 ca         1 VYI      -0.189300
     13 C13         -2.0910     0.1200     3.6130 ca         1 VYI       0.045600
     14 C14         -0.0010     0.0010     2.3980 ca         1 VYI       0.021600
     15 C15         -4.2290    -0.5970     4.4370 ca         1 VYI       0.172100
     16 C16          0.3030    -6.7960     6.6840 ca         1 VYI       0.156900
     17 C17          1.3900    -0.0000     2.3960 ca         1 VYI       0.022900
     18 C18         -1.6290    -5.1960     5.5200 ca         1 VYI      -0.179500
     19 C19         -2.1360    -1.6330     5.3800 c3         1 VYI       0.305100
     20 C20         -3.8950    -2.7110     6.8160 c3         1 VYI       0.192800
     21 C21         -4.8420    -1.5230     6.5720 c3         1 VYI       0.203400
     22 N22         -2.9660    -2.7970     5.6860 n3         1 VYI      -0.517500
     23 N23         -0.6990     0.0020     3.6100 nu         1 VYI      -0.226000
     24 O24         -2.3480    -3.7860     3.5110 o          1 VYI      -0.576300
     25 O25         -4.0970    -4.8590     4.9390 o          1 VYI      -0.576300
     26 O26         -5.0490    -1.4010     5.1640 os         1 VYI      -0.310900
     27 F28          2.0690    -0.0010     3.5640 f          1 VYI      -0.133900
     28 S29         -2.8610    -4.1770     4.7780 sy         1 VYI       1.055200
     29 H1          -0.5410    -0.0010    -0.9390 ha         1 VYI       0.104000
     30 H2           1.9230     0.0000    -0.9390 ha         1 VYI       0.107000
     31 H4          -1.7770     0.0000     1.1930 ha         1 VYI       0.144000
     32 H7           3.1600    -0.0010     1.1930 ha         1 VYI       0.114000
     33 H3          -4.5710     1.8760     2.1410 ha         1 VYI       0.104000
     34 H5          -2.1130     1.6800     2.1390 ha         1 VYI       0.127000
     35 H6          -5.9210     0.4400     3.6070 ha         1 VYI       0.117000
     36 H8          -1.2970    -7.6250     7.8410 ha         1 VYI       0.125500
     37 H10         -3.0190    -6.1990     6.8020 ha         1 VYI       0.126000
     38 H9           1.6930    -5.7900     5.3990 ha         1 VYI       0.125500
     39 H11         -0.0320    -4.3650     4.3620 ha         1 VYI       0.126000
     40 H191        -1.9020    -1.1120     6.3000 h1         1 VYI       0.021700
     41 H192        -1.2190    -1.9660     4.9090 h1         1 VYI       0.021700
     42 H23         -0.1980    -0.0260     4.4760 hn         1 VYI       0.291800
     43 H201        -3.3400    -2.5530     7.7320 h1         1 VYI       0.027700
     44 H202        -4.4700    -3.6270     6.8840 h1         1 VYI       0.027700
     45 H211        -4.3920    -0.6150     6.9540 h1         1 VYI       0.014200
     46 H212        -5.7890    -1.7050     7.0650 h1         1 VYI       0.014200
     47 F27          1.2470    -7.5760     7.2530 f          1 VYI      -0.123900
@<TRIPOS>BOND
     1     1     2 ar  
     2     1     4 ar  
     3     1    29 1   
     4     2     7 ar  
     5     2    30 1   
     6     3     5 ar  
     7     3     6 ar  
     8     3    33 1   
     9     4    14 ar  
    10     4    31 1   
    11     5    13 ar  
    12     5    34 1   
    13     6    15 ar  
    14     6    35 1   
    15     7    17 ar  
    16     7    32 1   
    17     8    10 ar  
    18     8    16 ar  
    19     8    36 1   
    20     9    11 ar  
    21     9    16 ar  
    22     9    38 1   
    23    10    18 ar  
    24    10    37 1   
    25    11    18 ar  
    26    11    39 1   
    27    12    13 ar  
    28    12    15 ar  
    29    12    19 1   
    30    13    23 1   
    31    14    17 ar  
    32    14    23 1   
    33    15    26 1   
    34    16    47 1   
    35    17    27 1   
    36    18    28 1   
    37    19    22 1   
    38    19    40 1   
    39    19    41 1   
    40    20    21 1   
    41    20    22 1   
    42    20    43 1   
    43    20    44 1   
    44    21    26 1   
    45    21    45 1   
    46    21    46 1   
    47    22    28 1   
    48    23    42 1   
    49    24    28 2   
    50    25    28 2   
@<TRIPOS>SUBSTRUCTURE
     1 VYI         1 TEMP              0 ****  ****    0 ROOT
