@<TRIPOS>MOLECULE
molecule
   47    50     1     0     0
SMALL
bcc


@<TRIPOS>ATOM
      1 C1           0.0000     0.0000     0.0000 ca         1 VYI      -0.100000
      2 C2           1.3820     0.0000     0.0000 ca         1 VYI      -0.151000
      3 C3          -4.0850     1.1560     2.7880 ca         1 VYI      -0.089000
      4 C4          -0.6930    -0.0000     1.1950 ca         1 VYI      -0.171000
      5 C5          -2.7090     1.0440     2.7820 ca         1 VYI      -0.183000
      6 C6          -4.8420     0.3460     3.6070 ca         1 VYI      -0.164000
      7 C7           2.0770     0.0000     1.1960 ca         1 VYI      -0.126000
      8 C8          -1.0190    -6.9090     7.0770 ca         1 VYI      -0.191500
      9 C9           0.6580    -5.8800     5.7070 ca         1 VYI      -0.191500
     10 C10         -1.9840    -6.1100     6.4940 ca         1 VYI      -0.004000
     11 C11         -0.3090    -5.0820     5.1260 ca         1 VYI      -0.004000
     12 C12         -2.8550    -0.6930     4.4500 ca         1 VYI      -0.181300
     13 C13         -2.0910     0.1200     3.6130 ca         1 VYI       0.190600
     14 C14         -0.0010     0.0010     2.3980 ca         1 VYI       0.160600
     15 C15         -4.2290    -0.5970     4.4370 ca         1 VYI       0.160100
     16 C16          0.3030    -6.7960     6.6840 ca         1 VYI       0.185900
     17 C17          1.3900    -0.0000     2.3960 ca         1 VYI       0.057900
     18 C18         -1.6290    -5.1960     5.5200 ca         1 VYI      -0.336500
     19 C19         -2.1360    -1.6330     5.3800 c3         1 VYI       0.293100
     20 C20         -3.8950    -2.7110     6.8160 c3         1 VYI       0.199800
     21 C21         -4.8420    -1.5230     6.5720 c3         1 VYI       0.135400
     22 N22         -2.9660    -2.7970     5.6860 n3         1 VYI      -0.806500
     23 N23         -0.6990     0.0020     3.6100 nu         1 VYI      -0.683000
     24 O24         -2.3480    -3.7860     3.5110 o          1 VYI      -0.623800
     25 O25         -4.0970    -4.8590     4.9390 o          1 VYI      -0.623800
     26 O26         -5.0490    -1.4010     5.1640 os         1 VYI      -0.329900
     27 F28          2.0690    -0.0010     3.5640 f          1 VYI      -0.151900
     28 S29         -2.8610    -4.1770     4.7780 sy         1 VYI       1.429200
     29 H1          -0.5410    -0.0010    -0.9390 ha         1 VYI       0.136000
     30 H2           1.9230     0.0000    -0.9390 ha         1 VYI       0.135000
     31 H4          -1.7770     0.0000     1.1930 ha         1 VYI       0.160000
     32 H7           3.1600    -0.0010     1.1930 ha         1 VYI       0.144000
     33 H3          -4.5710     1.8760     2.1410 ha         1 VYI       0.137000
     34 H5          -2.1130     1.6800     2.1390 ha         1 VYI       0.148000
     35 H6          -5.9210     0.4400     3.6070 ha         1 VYI       0.145000
     36 H8          -1.2970    -7.6250     7.8410 ha         1 VYI       0.152000
     37 H10         -3.0190    -6.1990     6.8020 ha         1 VYI       0.156500
     38 H9           1.6930    -5.7900     5.3990 ha         1 VYI       0.152000
     39 H11         -0.0320    -4.3650     4.3620 ha         1 VYI       0.156500
     40 H191        -1.9020    -1.1120     6.3000 h1         1 VYI       0.059200
     41 H192        -1.2190    -1.9660     4.9090 h1         1 VYI       0.059200
     42 H23         -0.1980    -0.0260     4.4760 hn         1 VYI       0.453800
     43 H201        -3.3400    -2.5530     7.7320 h1         1 VYI       0.061700
     44 H202        -4.4700    -3.6270     6.8840 h1         1 VYI       0.061700
     45 H211        -4.3920    -0.6150     6.9540 h1         1 VYI       0.057200
     46 H212        -5.7890    -1.7050     7.0650 h1         1 VYI       0.057200
     47 F27          1.2470    -7.5760     7.2530 f          1 VYI      -0.132900
@<TRIPOS>BOND
     1     1     2 ar
     2     1     4 ar
     3     2     7 ar
     4     3     5 ar
     5     3     6 ar
     6     4    14 ar
     7     5    13 ar
     8     6    15 ar
     9     7    17 ar
    10     8    10 ar
    11     8    16 ar
    12     9    11 ar
    13     9    16 ar
    14    10    18 ar
    15    11    18 ar
    16    12    13 ar
    17    12    15 ar
    18    12    19 1
    19    13    23 1
    20    14    17 ar
    21    14    23 1
    22    15    26 1
    23    16    47 1
    24    17    27 1
    25    18    28 1
    26    19    22 1
    27    20    21 1
    28    20    22 1
    29    21    26 1
    30    22    28 1
    31    24    28 2
    32    25    28 2
    33     1    29 1
    34     2    30 1
    35     4    31 1
    36     7    32 1
    37     3    33 1
    38     5    34 1
    39     6    35 1
    40     8    36 1
    41    10    37 1
    42     9    38 1
    43    11    39 1
    44    19    40 1
    45    19    41 1
    46    23    42 1
    47    20    43 1
    48    20    44 1
    49    21    45 1
    50    21    46 1
@<TRIPOS>SUBSTRUCTURE
     1 VYI         1 TEMP              0 ****  ****    0 ROOT
