@<TRIPOS>MOLECULE
VYR
   76    80     1     0     0
SMALL
bcc


@<TRIPOS>ATOM
      1 C34        -0.1150    1.2010    0.4560 cc        1 VYR     -0.075000
      2 C35         1.1580    0.7800   -0.0040 cc        1 VYR     -0.157000
      3 C36         1.4490   -0.5120    0.4160 cd        1 VYR     -0.009700
      4 CL          2.8540   -1.3380    0.0680 cl        1 VYR      0.008600
      5 S37         0.2080   -1.1640    1.3320 ss        1 VYR      0.117200
      6 C33        -0.7470    0.2130    1.2100 cd        1 VYR     -0.241600
      7 C31        -2.0270    0.3330    1.8060 cd        1 VYR      0.413200
      8 C32        -2.8390   -0.4890    2.5790 cc        1 VYR     -0.374600
      9 O30        -2.7230    1.5600    1.6160 os        1 VYR     -0.077100
     10 N29        -3.8840    1.5120    2.2230 nd        1 VYR     -0.437300
     11 C28        -4.0290    0.3090    2.8270 cc        1 VYR      0.299600
     12 C27        -5.2010   -0.1350    3.6100 c3        1 VYR     -0.125700
     13 C17        -6.4200    0.7820    3.4330 c3        1 VYR      0.063500
     14 C18        -7.6280    0.1490    4.1800 c         1 VYR      0.636100
     15 O43        -7.9920    0.6840    5.2520 o         1 VYR     -0.617100
     16 N19        -8.1990   -1.0040    3.7040 n         1 VYR     -0.421800
     17 C20        -9.3840   -1.5340    4.3720 c3        1 VYR      0.073500
     18 C21       -10.6680   -1.3520    3.5680 c3        1 VYR     -0.119900
     19 C22       -10.5100   -1.8910    2.1490 c3        1 VYR      0.140100
     20 O25       -11.6770   -1.4760    1.4400 os        1 VYR     -0.416600
     21 C26       -12.0010   -2.3080    0.3380 c3        1 VYR      0.111700
     22 C23        -9.2670   -1.3150    1.4730 c3        1 VYR     -0.119900
     23 C24        -8.0300   -1.4990    2.3510 c3        1 VYR      0.073500
     24 N16        -6.1720    2.1700    3.9160 n4        1 VYR     -0.688900
     25 S15        -6.2110    3.5690    2.5840 sy        1 VYR      1.485200
     26 O40        -5.0160    4.2060    2.8270 o         1 VYR     -0.562300
     27 O41        -6.4560    2.8840    1.4090 o         1 VYR     -0.562300
     28 C9         -7.5380    4.3100    3.1590 ca        1 VYR     -0.515500
     29 C8         -7.5780    5.2080    4.2520 ca        1 VYR      0.105700
     30 C13        -6.3510    5.4820    5.0600 c3        1 VYR     -0.064100
     31 C14        -5.6120    6.7070    4.5670 c3        1 VYR     -0.101100
     32 C10        -8.7330    4.0750    2.4340 ca        1 VYR     -0.018000
     33 C11        -9.9170    4.7050    2.7600 ca        1 VYR     -0.140000
     34 C12        -9.9530    5.6010    3.8290 ca        1 VYR     -0.013000
     35 C7         -8.7940    5.8600    4.5860 ca        1 VYR      0.023600
     36 N3         -8.8550    6.7790    5.6730 n         1 VYR     -0.407000
     37 C2         -9.5090    6.2940    6.8740 c3        1 VYR      0.057000
     38 C1         -9.4770    7.3080    8.0250 c3        1 VYR      0.112400
     39 O6         -9.8980    8.5880    7.5740 os        1 VYR     -0.387600
     40 C5         -9.0440    9.1160    6.5750 c3        1 VYR      0.062400
     41 C4         -8.7810    8.1580    5.4200 c         1 VYR      0.669500
     42 O39        -8.4350    8.5820    4.3060 o         1 VYR     -0.601500
     43 H34        -0.5460    2.1840    0.2420 ha        1 VYR      0.176000
     44 H35         1.8200    1.4030   -0.6130 ha        1 VYR      0.182000
     45 H32        -2.6530   -1.4990    2.9310 ha        1 VYR      0.188000
     46 H271       -5.4830   -1.1710    3.2730 hc        1 VYR      0.100700
     47 H272       -4.9190   -0.2040    4.6980 hc        1 VYR      0.100700
     48 H17        -6.6670    0.8670    2.3280 hx        1 VYR      0.136700
     49 H16        -5.2580    2.2000    4.3720 hn        1 VYR      0.457300
     50 H201       -9.5030   -1.0420    5.3790 h1        1 VYR      0.072450
     51 H202       -9.1960   -2.6340    4.5340 h1        1 VYR      0.072450
     52 H241       -7.1490   -1.0140    1.8470 h1        1 VYR      0.072450
     53 H242       -7.8050   -2.6030    2.4380 h1        1 VYR      0.072450
     54 H211      -10.9600   -0.2710    3.5230 hc        1 VYR      0.070700
     55 H212      -11.4960   -1.9030    4.0860 hc        1 VYR      0.070700
     56 H22       -10.4420   -3.0150    2.1710 h1        1 VYR      0.050700
     57 H231       -9.0890   -1.8360    0.4970 hc        1 VYR      0.070700
     58 H232       -9.4380   -0.2310    1.2510 hc        1 VYR      0.070700
     59 H261      -12.9280   -1.8480   -0.0890 h1        1 VYR      0.041700
     60 H262      -11.1770   -2.3040   -0.4170 h1        1 VYR      0.041700
     61 H263      -12.2040   -3.3540    0.6780 h1        1 VYR      0.041700
     62 H10        -8.7140    3.3820    1.5700 ha        1 VYR      0.170000
     63 H131       -5.6540    4.6010    5.0370 hc        1 VYR      0.053200
     64 H132       -6.6310    5.6260    6.1400 hc        1 VYR      0.053200
     65 H141       -5.1270    6.5040    3.5810 hc        1 VYR      0.063700
     66 H142       -4.8130    6.9790    5.3000 hc        1 VYR      0.063700
     67 H143       -6.3070    7.5760    4.4540 hc        1 VYR      0.063700
     68 H11       -10.8310    4.5130    2.1730 ha        1 VYR      0.172000
     69 H12       -10.9020    6.1140    4.0740 ha        1 VYR      0.170000
     70 H21C       -8.9890    5.3510    7.2060 h1        1 VYR      0.053700
     71 H22C      -10.5840    6.0380    6.6440 h1        1 VYR      0.053700
     72 H11C       -8.4520    7.3730    8.4750 h1        1 VYR      0.073700
     73 H12C      -10.2280    7.0230    8.8080 h1        1 VYR      0.073700
     74 H51C       -9.5810   10.0250    6.1890 h1        1 VYR      0.097700
     75 H52C       -8.0530    9.4050    7.0190 h1        1 VYR      0.097700
     76 H162       -6.8640    2.3810    4.6470 hn        1 VYR      0.457300
@<TRIPOS>BOND
     1    1    2 1
     2    1    6 2
     3    1   43 1
     4    2    3 2
     5    2   44 1
     6    3    4 1
     7    3    5 1
     8    5    6 1
     9    6    7 1
    10    7    8 2
    11    7    9 1
    12    8   11 1
    13    8   45 1
    14    9   10 1
    15   10   11 2
    16   11   12 1
    17   12   13 1
    18   12   46 1
    19   12   47 1
    20   13   14 1
    21   13   24 1
    22   13   48 1
    23   14   15 2
    24   14   16 1
    25   16   17 1
    26   16   23 1
    27   17   18 1
    28   17   50 1
    29   17   51 1
    30   18   19 1
    31   18   54 1
    32   18   55 1
    33   19   20 1
    34   19   22 1
    35   19   56 1
    36   20   21 1
    37   21   59 1
    38   21   60 1
    39   21   61 1
    40   22   23 1
    41   22   57 1
    42   22   58 1
    43   23   52 1
    44   23   53 1
    45   24   25 1
    46   24   49 1
    47   24   76 1
    48   25   26 2
    49   25   27 2
    50   25   28 1
    51   28   29 ar
    52   28   32 ar
    53   29   30 1
    54   29   35 ar
    55   30   31 1
    56   30   63 1
    57   30   64 1
    58   31   65 1
    59   31   66 1
    60   31   67 1
    61   32   33 ar
    62   32   62 1
    63   33   34 ar
    64   33   68 1
    65   34   35 ar
    66   34   69 1
    67   35   36 1
    68   36   37 1
    69   36   41 1
    70   37   38 1
    71   37   70 1
    72   37   71 1
    73   38   39 1
    74   38   72 1
    75   38   73 1
    76   39   40 1
    77   40   41 1
    78   40   74 1
    79   40   75 1
    80   41   42 2
@<TRIPOS>SUBSTRUCTURE
     1 VYR         1 TEMP              0 ****  ****    0 ROOT
