@<TRIPOS>MOLECULE
molecule
   54    57     1     0     0
SMALL
bcc


@<TRIPOS>ATOM
      1 CAA          0.0000     0.0000     0.0000 c3         1 VZ4      -0.095100
      2 CAB          5.8760    -5.3060     2.7740 c3         1 VZ4      -0.085100
      3 NAC          0.9880     2.4510     4.3980 nz         1 VZ4      -0.813500
      4 OAE         -0.2310     1.2150     2.6450 o          1 VZ4      -0.517800
      5 OAF          0.5150     3.5670     2.2480 o          1 VZ4      -0.517800
      6 CAG          2.7220     0.0000     3.5870 ca         1 VZ4      -0.198000
      7 CAH          2.2600    -1.8120     1.5640 ca         1 VZ4      -0.101000
      8 CAI          1.5300     0.0000     0.0000 c3         1 VZ4      -0.061100
      9 CAJ          5.2210    -7.4240     4.9970 c3         1 VZ4      -0.188400
     10 CAK          3.4770    -1.7560     5.1630 c3         1 VZ4      -0.040100
     11 CAL          4.9100    -5.9710     5.4530 c3         1 VZ4      -0.077400
     12 CAM          3.3250    -3.2600     5.3850 c3         1 VZ4      -0.077400
     13 CAN          3.4220    -4.4040     1.7130 c3         1 VZ4      -0.079400
     14 CAO          3.6250    -5.9140     1.9430 c3         1 VZ4      -0.054400
     15 CAQ          4.9490    -7.4790     3.4970 c          1 VZ4       0.589100
     16 CAR          2.0320    -0.4700     1.3410 ca         1 VZ4      -0.005300
     17 CAS          2.9610    -1.3490     3.8080 ca         1 VZ4      -0.035300
     18 CAT          2.2560     0.4430     2.3610 ca         1 VZ4       0.003100
     19 CAU          2.7220    -2.2560     2.7960 ca         1 VZ4      -0.005300
     20 CAV          2.9310    -3.7310     2.9860 c3         1 VZ4      -0.036400
     21 CAW          3.8850    -3.9830     4.1600 c3         1 VZ4      -0.061700
     22 CAX          3.9400    -5.4830     4.3700 c3         1 VZ4      -0.066700
     23 CAY          4.5960    -6.0790     3.0930 c3         1 VZ4      -0.182000
     24 SAZ          0.7190     2.2630     2.7750 s6         1 VZ4       1.465400
     25 HAA         -0.3610    -0.5090    -0.8860 hc         1 VZ4       0.050367
     26 HAAA        -0.3610     1.0210     0.0020 hc         1 VZ4       0.050367
     27 HAAB        -0.3610    -0.5130     0.8830 hc         1 VZ4       0.050367
     28 HAB          6.5670    -5.3940     3.6040 hc         1 VZ4       0.047367
     29 HABA         6.3320    -5.7140     1.8800 hc         1 VZ4       0.047367
     30 HABB         5.6370    -4.2610     2.6130 hc         1 VZ4       0.047367
     31 HAH          2.0770    -2.5270     0.7700 ha         1 VZ4       0.175000
     32 HAN          2.6900    -4.2590     0.9280 hc         1 VZ4       0.051700
     33 HANA         4.3650    -3.9600     1.4170 hc         1 VZ4       0.051700
     34 HAO          4.0360    -6.3680     1.0490 hc         1 VZ4       0.063200
     35 HAOA         2.6780    -6.3770     2.1940 hc         1 VZ4       0.063200
     36 HAV          1.9730    -4.1690     3.2410 hc         1 VZ4       0.077700
     37 HNAC         0.2110     2.7840     4.9330 hn         1 VZ4       0.476800
     38 HNAA         0.8590     1.4640     4.2950 hn         1 VZ4       0.476800
     39 HAG          2.9050     0.7140     4.3820 ha         1 VZ4       0.100000
     40 HAI          1.8910     1.0040    -0.1890 hc         1 VZ4       0.073200
     41 HAIA         1.8910    -0.6660    -0.7740 hc         1 VZ4       0.073200
     42 HAJ          6.2660    -7.6410     5.1810 hc         1 VZ4       0.081200
     43 HAJA         4.5550    -8.1100     5.5070 hc         1 VZ4       0.081200
     44 HAK          4.5250    -1.4920     5.2360 hc         1 VZ4       0.057700
     45 HAKA         2.9190    -1.2270     5.9270 hc         1 VZ4       0.057700
     46 HAL          5.8120    -5.3710     5.4590 hc         1 VZ4       0.053700
     47 HALA         4.4310    -5.9690     6.4250 hc         1 VZ4       0.053700
     48 HAM          3.8800    -3.5550     6.2680 hc         1 VZ4       0.060700
     49 HAMA         2.2770    -3.5060     5.5070 hc         1 VZ4       0.060700
     50 HAW          4.8720    -3.6050     3.9240 hc         1 VZ4       0.075700
     51 HAX          2.9490    -5.8930     4.5210 hc         1 VZ4       0.068700
     52 OAP          2.0190     1.7650     2.1580 os         1 VZ4      -0.376800
     53 HAC3         1.6570     1.8920     4.8900 hn         1 VZ4       0.476800
     54 OAD          5.0070    -8.4490     2.7820 o          1 VZ4      -0.484100
@<TRIPOS>BOND
     1     8     1 1
     2     1    25 1
     3     1    26 1
     4     1    27 1
     5    23     2 1
     6     2    28 1
     7     2    30 1
     8     2    29 1
     9    24     3 1
    10     3    37 1
    11     3    38 1
    12    15    54 2
    13    24     4 2
    14    24     5 2
    15    17     6 ar
    16     6    18 ar
    17     6    39 1
    18    19     7 ar
    19    31     7 1
    20     7    16 ar
    21    16     8 1
    22     8    40 1
    23     8    41 1
    24     9    11 1
    25     9    15 1
    26     9    42 1
    27     9    43 1
    28    12    10 1
    29    10    17 1
    30    10    44 1
    31    10    45 1
    32    11    22 1
    33    11    46 1
    34    11    47 1
    35    12    21 1
    36    12    48 1
    37    12    49 1
    38    20    13 1
    39    14    13 1
    40    13    32 1
    41    13    33 1
    42    35    14 1
    43    23    14 1
    44    14    34 1
    45    18    52 1
    46    52    24 1
    47    15    23 1
    48    18    16 ar
    49    17    19 ar
    50    20    19 1
    51    36    20 1
    52    21    20 1
    53    22    21 1
    54    21    50 1
    55    22    23 1
    56    22    51 1
    57    53     3 1
@<TRIPOS>SUBSTRUCTURE
     1 VZ4         1 TEMP              0 ****  ****    0 ROOT
