@<TRIPOS>MOLECULE
molecule
   56    59     1     0     0
SMALL
bcc


@<TRIPOS>ATOM
      1 C1           0.0000     0.0000     0.0000 ca         1 VZ5      -0.193000
      2 N1           0.5360    -1.5850    -2.4620 nz         1 VZ5      -0.829500
      3 O1           2.2890    -2.3360    -0.8950 o          1 VZ5      -0.529800
      4 S1           2.0710    -1.3440    -1.8890 s6         1 VZ5       1.475400
      5 C2           1.3850     0.0000     0.0000 ca         1 VZ5       0.008100
      6 O2           2.9060    -1.1900    -3.0290 o          1 VZ5      -0.529800
      7 C3           2.0720     0.0000     1.2050 ca         1 VZ5      -0.008300
      8 O3           2.0670     0.0010    -1.1760 os         1 VZ5      -0.391800
      9 C4           1.3690    -0.0050     2.3910 ca         1 VZ5      -0.103000
     10 C5          -0.0190    -0.0120     2.3910 ca         1 VZ5      -0.006300
     11 C6          -0.7070     0.0040     1.1950 ca         1 VZ5      -0.037300
     12 C7          -2.2110     0.0260     1.1160 c3         1 VZ5      -0.039100
     13 C8          -2.8420    -0.3590     2.4540 c3         1 VZ5      -0.077400
     14 C9          -2.1680     0.4610     3.5540 c3         1 VZ5      -0.058700
     15 C10         -0.7300    -0.0470     3.7120 c3         1 VZ5      -0.035400
     16 C11          0.0180     0.7290     4.7870 c3         1 VZ5      -0.076400
     17 C12         -0.7390     0.6700     6.1270 c3         1 VZ5      -0.062400
     18 C13         -2.1320     1.2240     5.8930 c3         1 VZ5      -0.072000
     19 C14         -2.8520     0.2830     4.8920 c3         1 VZ5      -0.071700
     20 C15         -4.3080     0.7220     4.9870 c3         1 VZ5      -0.073400
     21 C16         -4.4830     1.2530     6.4320 c3         1 VZ5      -0.101400
     22 C17         -3.0820     1.1850     7.0950 c3         1 VZ5       0.157100
     23 O17         -2.8690     2.3120     7.9460 oh         1 VZ5      -0.595800
     24 C18         -2.0430     2.6370     5.3150 c3         1 VZ5      -0.078100
     25 C19          3.5780     0.0070     1.2170 c3         1 VZ5      -0.058100
     26 C20          4.0940    -1.4340     1.2150 c3         1 VZ5      -0.093100
     27 H10         -0.7810    -1.0810     4.0310 hc         1 VZ5       0.073700
     28 H20          4.5410    -1.6560     0.2530 hc         1 VZ5       0.049367
     29 H20A         4.8370    -1.5530     1.9940 hc         1 VZ5       0.049367
     30 H20B         3.2690    -2.1130     1.3950 hc         1 VZ5       0.049367
     31 H1          -0.5370     0.0000    -0.9410 ha         1 VZ5       0.096000
     32 H11          1.0030     0.2970     4.9160 hc         1 VZ5       0.050200
     33 H11A         0.1140     1.7630     4.4780 hc         1 VZ5       0.050200
     34 H12         -0.8050    -0.3570     6.4660 hc         1 VZ5       0.054700
     35 H12A        -0.2240     1.2740     6.8650 hc         1 VZ5       0.054700
     36 H4           1.9050    -0.0050     3.3330 ha         1 VZ5       0.173000
     37 H14         -2.7560    -0.7450     5.2200 hc         1 VZ5       0.055700
     38 H15         -4.5080     1.5110     4.2720 hc         1 VZ5       0.047200
     39 H15A        -4.9650    -0.1220     4.8170 hc         1 VZ5       0.047200
     40 H16         -4.8330     2.2790     6.4100 hc         1 VZ5       0.059700
     41 H16A        -5.1810     0.6280     6.9750 hc         1 VZ5       0.059700
     42 H7          -2.5360     1.0240     0.8460 hc         1 VZ5       0.056200
     43 H17         -2.9650     0.2570     7.6420 h1         1 VZ5       0.041700
     44 H7A         -2.5350    -0.6750     0.3570 hc         1 VZ5       0.056200
     45 H8          -2.6860    -1.4150     2.6390 hc         1 VZ5       0.059200
     46 H18         -3.0380     2.9920     5.0770 hc         1 VZ5       0.043367
     47 H8A         -3.9020    -0.1390     2.4330 hc         1 VZ5       0.059200
     48 H18A        -1.5880     3.2970     6.0430 hc         1 VZ5       0.043367
     49 H18B        -1.4400     2.6220     4.4150 hc         1 VZ5       0.043367
     50 H9          -2.1600     1.5090     3.2810 hc         1 VZ5       0.075700
     51 H19          3.9440     0.5230     0.3380 hc         1 VZ5       0.070700
     52 H19A         3.9300     0.5150     2.1070 hc         1 VZ5       0.070700
     53 HN1          0.5700    -2.1800    -3.2660 hn         1 VZ5       0.495467
     54 HN1A        -0.0220    -2.0150    -1.7520 hn         1 VZ5       0.495467
     55 HO17        -2.8990     2.0360     8.8480 ho         1 VZ5       0.407000
     56 H13          0.1330    -0.7040    -2.7160 hn         1 VZ5       0.495467
@<TRIPOS>BOND
     1    11     1 ar
     2     1    31 1
     3     1     5 ar
     4     2     4 1
     5     2    53 1
     6     2    54 1
     7     4     3 2
     8     8     4 1
     9     6     4 2
    10     7     5 ar
    11     5     8 1
    12     9     7 ar
    13     7    25 1
    14    10     9 ar
    15    36     9 1
    16    15    10 1
    17    10    11 ar
    18    12    11 1
    19    13    12 1
    20    44    12 1
    21    12    42 1
    22    45    13 1
    23    47    13 1
    24    14    13 1
    25    19    14 1
    26    14    15 1
    27    14    50 1
    28    27    15 1
    29    16    15 1
    30    32    16 1
    31    17    16 1
    32    16    33 1
    33    18    17 1
    34    35    17 1
    35    17    34 1
    36    22    18 1
    37    18    19 1
    38    18    24 1
    39    20    19 1
    40    37    19 1
    41    21    20 1
    42    38    20 1
    43    20    39 1
    44    40    21 1
    45    41    21 1
    46    21    22 1
    47    43    22 1
    48    23    22 1
    49    23    55 1
    50    49    24 1
    51    48    24 1
    52    24    46 1
    53    51    25 1
    54    25    26 1
    55    25    52 1
    56    28    26 1
    57    26    30 1
    58    26    29 1
    59    56     2 1
@<TRIPOS>SUBSTRUCTURE
     1 VZ5         1 TEMP              0 ****  ****    0 ROOT
