@<TRIPOS>MOLECULE
molecule
   70    74     1     0     0
SMALL
bcc


@<TRIPOS>ATOM
      1 O43          0.0000     0.0000     0.0000 o          1 VZV      -0.596100
      2 C42          1.2170     0.0000     0.0000 c          1 VZV       0.763700
      3 N5           1.8900     0.0000     1.1670 n          1 VZV      -0.474800
      4 C4           1.2860    -0.0870     2.5050 c3         1 VZV       0.049700
      5 C6           0.3860     1.0980     2.7390 c          1 VZV       0.650100
      6 O10          0.2440     1.9330     1.8700 o          1 VZV      -0.574100
      7 N7          -0.2640     1.2310     3.9130 n          1 VZV      -0.501800
      8 C9          -1.1400     2.3830     4.1400 c3         1 VZV       0.099800
      9 C8          -0.0930     0.2210     4.9620 c3         1 VZV       0.099800
     10 C3           2.4400    -0.0790     3.5300 c3         1 VZV      -0.091400
     11 C2           3.6540    -0.5580     2.6920 c3         1 VZV      -0.092400
     12 C1           3.3550     0.0820     1.3150 c3         1 VZV       0.088000
     13 C37          1.9500    -0.0070    -1.2690 cc         1 VZV      -0.169700
     14 C38          1.4370    -0.1240    -2.5010 cd         1 VZV       0.099400
     15 C39         -0.0490    -0.2690    -2.7050 c3         1 VZV      -0.053400
     16 C41         -0.5090     0.6910    -3.8030 c3         1 VZV      -0.090600
     17 C40         -0.3700    -1.7070    -3.1180 c3         1 VZV      -0.090600
     18 N35          2.2870    -0.1080    -3.5660 na         1 VZV      -0.189100
     19 C31          2.1670    -0.2040    -5.0460 c3         1 VZV       0.089300
     20 C24          1.5650    -1.5280    -5.4440 ca         1 VZV      -0.099300
     21 C23          0.6420    -1.5850    -6.4710 ca         1 VZV      -0.102500
     22 C22          0.0900    -2.7980    -6.8370 ca         1 VZV      -0.120500
     23 C25          1.9420    -2.6830    -4.7860 ca         1 VZV      -0.102500
     24 C26          1.3910    -3.8970    -5.1510 ca         1 VZV      -0.120500
     25 C21          0.4630    -3.9550    -6.1740 ca         1 VZV       0.036400
     26 Cl2         -0.2300    -5.4790    -6.6330 cl         1 VZV      -0.104400
     27 S36          3.7000     0.1450    -1.4960 ss         1 VZV      -0.179800
     28 C34          3.6170     0.0280    -3.2690 cc         1 VZV       0.164600
     29 N33          4.4050     0.0390    -4.3090 n2         1 VZV      -0.337200
     30 C32          3.6200    -0.1020    -5.5390 c3         1 VZV       0.177500
     31 C44          3.7970     1.1280    -6.4320 c3         1 VZV      -0.073100
     32 C15          4.0160    -1.3540    -6.2770 ca         1 VZV      -0.071300
     33 C16          3.5790    -1.5600    -7.5730 ca         1 VZV      -0.103000
     34 C11          3.9430    -2.7080    -8.2510 ca         1 VZV      -0.124000
     35 C14          4.8210    -2.2940    -5.6620 ca         1 VZV      -0.103000
     36 C13          5.1860    -3.4430    -6.3390 ca         1 VZV      -0.124000
     37 C12          4.7440    -3.6520    -7.6330 ca         1 VZV       0.032400
     38 Cl1          5.2000    -5.0950    -8.4840 cl         1 VZV      -0.111400
     39 H1           0.7230    -1.0080     2.5940 h1         1 VZV       0.076700
     40 H2          -0.6050     3.2950     3.9070 h1         1 VZV       0.040533
     41 H3          -2.0130     2.3030     3.5040 h1         1 VZV       0.040533
     42 H4          -1.4500     2.4020     5.1780 h1         1 VZV       0.040533
     43 H5          -0.9160     0.2870     5.6630 h1         1 VZV       0.040533
     44 H6          -0.0770    -0.7650     4.5140 h1         1 VZV       0.040533
     45 H7           0.8410     0.3970     5.4830 h1         1 VZV       0.040533
     46 H8           2.6090     0.9220     3.9080 hc         1 VZV       0.061700
     47 H9           2.2380    -0.7720     4.3380 hc         1 VZV       0.061700
     48 H10          4.5810    -0.1750     3.1010 hc         1 VZV       0.060200
     49 H11          3.6700    -1.6380     2.6190 hc         1 VZV       0.060200
     50 H12          3.8430    -0.4790     0.5270 h1         1 VZV       0.061200
     51 H13          3.6760     1.1160     1.3040 h1         1 VZV       0.061200
     52 H16         -0.5640    -0.0350    -1.7820 hc         1 VZV       0.134700
     53 H17         -0.4620     0.1910    -4.7630 hc         1 VZV       0.040533
     54 H18         -1.5280     1.0010    -3.6080 hc         1 VZV       0.040533
     55 H19          0.1370     1.5610    -3.8170 hc         1 VZV       0.040533
     56 H20         -1.2520    -2.0460    -2.5880 hc         1 VZV       0.040533
     57 H21         -0.5520    -1.7440    -4.1850 hc         1 VZV       0.040533
     58 H22          0.4680    -2.3490    -2.8720 hc         1 VZV       0.040533
     59 H23          1.5780     0.6200    -5.4310 h1         1 VZV       0.084700
     60 H24          0.3500    -0.6790    -6.9890 ha         1 VZV       0.141500
     61 H25         -0.6360    -2.8440    -7.6400 ha         1 VZV       0.148000
     62 H26          2.6700    -2.6370    -3.9840 ha         1 VZV       0.141500
     63 H27          1.6850    -4.8030    -4.6340 ha         1 VZV       0.148000
     64 H28          3.6870     2.0260    -5.8370 hc         1 VZV       0.048700
     65 H29          3.0460     1.1180    -7.2130 hc         1 VZV       0.048700
     66 H30          4.7840     1.1100    -6.8800 hc         1 VZV       0.048700
     67 H31          2.9520    -0.8210    -8.0570 ha         1 VZV       0.145000
     68 H32          3.5980    -2.8710    -9.2650 ha         1 VZV       0.144000
     69 H33          5.1670    -2.1300    -4.6490 ha         1 VZV       0.145000
     70 H34          5.8150    -4.1800    -5.8550 ha         1 VZV       0.144000
@<TRIPOS>BOND
     1     6     5 2
     2     5     7 1
     3     5     4 1
     4     9     7 1
     5     7     8 1
     6     4    10 1
     7     4     3 1
     8    10    11 1
     9     1     2 2
    10     3     2 1
    11     3    12 1
    12    11    12 1
    13     2    13 1
    14    13    27 1
    15    13    14 2
    16    27    28 1
    17    16    15 1
    18    14    15 1
    19    14    18 1
    20    17    15 1
    21    28    18 1
    22    28    29 2
    23    18    19 1
    24    29    30 1
    25    19    30 1
    26    19    20 1
    27    30    31 1
    28    30    32 1
    29    23    20 ar
    30    23    24 ar
    31    20    21 ar
    32    24    25 ar
    33    32    35 ar
    34    32    33 ar
    35    35    36 ar
    36    21    22 ar
    37    25    22 ar
    38    25    26 1
    39    33    34 ar
    40    36    37 ar
    41    34    37 ar
    42    37    38 1
    43     4    39 1
    44     8    40 1
    45     8    41 1
    46     8    42 1
    47     9    43 1
    48     9    44 1
    49     9    45 1
    50    10    46 1
    51    10    47 1
    52    11    48 1
    53    11    49 1
    54    12    50 1
    55    12    51 1
    56    15    52 1
    57    16    53 1
    58    16    54 1
    59    16    55 1
    60    17    56 1
    61    17    57 1
    62    17    58 1
    63    19    59 1
    64    21    60 1
    65    22    61 1
    66    23    62 1
    67    24    63 1
    68    31    64 1
    69    31    65 1
    70    31    66 1
    71    33    67 1
    72    34    68 1
    73    35    69 1
    74    36    70 1
@<TRIPOS>SUBSTRUCTURE
     1 VZV         1 TEMP              0 ****  ****    0 ROOT
