@<TRIPOS>MOLECULE
molecule
   38    37     1     0     0
SMALL
bcc


@<TRIPOS>ATOM
      1 O3           0.0000     0.0000     0.0000 o          1 VZZ      -0.857800
      2 C12          1.2080     0.0000     0.0000 c          1 VZZ       0.891600
      3 O4           1.8790     0.0000     1.1620 o          1 VZZ      -0.857800
      4 C11          1.9610    -0.0060    -1.3050 c3         1 VZZ      -0.183400
      5 C10          0.9670    -0.0110    -2.4680 c3         1 VZZ      -0.063400
      6 C9           1.7300    -0.0160    -3.7940 c3         1 VZZ      -0.088400
      7 C8           0.7360    -0.0210    -4.9560 c3         1 VZZ      -0.081400
      8 C7           1.5010    -0.0270    -6.2820 c3         1 VZZ      -0.083400
      9 C6           0.5060    -0.0330    -7.4440 c3         1 VZZ      -0.082400
     10 C5           1.2710    -0.0380    -8.7690 c3         1 VZZ      -0.080400
     11 C4           0.2760    -0.0440    -9.9320 c3         1 VZZ      -0.080400
     12 C3           1.0400    -0.0490   -11.2570 c3         1 VZZ      -0.084400
     13 C2           0.0460    -0.0540   -12.4200 c3         1 VZZ       0.138400
     14 O2           0.7710    -0.0600   -13.6770 os         1 VZZ      -0.403900
     15 C1           0.0370    -0.0650   -14.8070 c          1 VZZ       0.679700
     16 O1          -1.1760    -0.0650   -14.7430 o          1 VZZ      -0.507000
     17 S1           0.8370    -0.0710   -16.3770 sh         1 VZZ      -0.312400
     18 H111         2.5840     0.8790    -1.3670 hc         1 VZZ       0.026700
     19 H112         2.5840    -0.8900    -1.3590 hc         1 VZZ       0.026700
     20 H101         0.3440    -0.8950    -2.4070 hc         1 VZZ       0.044700
     21 H102         0.3440     0.8740    -2.4150 hc         1 VZZ       0.044700
     22 H91          2.3530    -0.9010    -3.8470 hc         1 VZZ       0.028700
     23 H92          2.3530     0.8680    -3.8550 hc         1 VZZ       0.028700
     24 H81          0.1130     0.8630    -4.9030 hc         1 VZZ       0.038700
     25 H82          0.1130    -0.9060    -4.8950 hc         1 VZZ       0.038700
     26 H71          2.1230     0.8580    -6.3440 hc         1 VZZ       0.037200
     27 H72          2.1240    -0.9110    -6.3350 hc         1 VZZ       0.037200
     28 H61         -0.1180     0.8510    -7.3900 hc         1 VZZ       0.040700
     29 H62         -0.1160    -0.9180    -7.3820 hc         1 VZZ       0.040700
     30 H51          1.8930     0.8470    -8.8300 hc         1 VZZ       0.041700
     31 H52          1.8950    -0.9220    -8.8230 hc         1 VZZ       0.041700
     32 H41         -0.3470    -0.9280    -9.8700 hc         1 VZZ       0.043700
     33 H42         -0.3480     0.8410    -9.8780 hc         1 VZZ       0.043700
     34 H31          1.6630    -0.9340   -11.3110 hc         1 VZZ       0.054700
     35 H32          1.6630     0.8350   -11.3180 hc         1 VZZ       0.054700
     36 H21         -0.5770    -0.9390   -12.3590 h1         1 VZZ       0.051700
     37 H22         -0.5770     0.8300   -12.3660 h1         1 VZZ       0.051700
     38 HS1          0.6630     1.1050   -16.9670 hs         1 VZZ       0.238800
@<TRIPOS>BOND
     1     1     2 1
     2     2     3 1
     3     2     4 1
     4     4     5 1
     5     4    18 1
     6     4    19 1
     7     5     6 1
     8     5    20 1
     9     5    21 1
    10     6     7 1
    11     6    22 1
    12     6    23 1
    13     7     8 1
    14     7    24 1
    15     7    25 1
    16     8     9 1
    17     8    26 1
    18     8    27 1
    19     9    10 1
    20     9    28 1
    21     9    29 1
    22    10    11 1
    23    10    30 1
    24    10    31 1
    25    11    12 1
    26    11    32 1
    27    11    33 1
    28    12    13 1
    29    12    34 1
    30    12    35 1
    31    13    14 1
    32    13    36 1
    33    13    37 1
    34    14    15 1
    35    15    16 2
    36    15    17 1
    37    17    38 1
@<TRIPOS>SUBSTRUCTURE
     1 VZZ         1 TEMP              0 ****  ****    0 ROOT
