@<TRIPOS>MOLECULE
molecule
    8     7     1     0     0
SMALL
bcc


@<TRIPOS>ATOM
      1 C            0.0000     0.0000     0.0000 c          1 000       0.470100
      2 O            1.2150     0.0000     0.0000 o          1 000      -0.588000
      3 OA          -0.6730     0.0000     1.1650 os         1 000      -0.480900
      4 CB           0.1190    -0.0070     2.3820 c3         1 000       0.157700
      5 OXT         -0.6720     0.0050    -1.1650 o          1 000      -0.588000
      6 HB           0.7420    -0.8930     2.4030 h1         1 000       0.009700
      7 HBA         -0.5400    -0.0080     3.2420 h1         1 000       0.009700
      8 HBB          0.7470     0.8760     2.4100 h1         1 000       0.009700
@<TRIPOS>BOND
     1     1     5 1
     2     2     1 1
     3     3     1 1
     4     4     3 1
     5     4     6 1
     6     4     7 1
     7     4     8 1
@<TRIPOS>SUBSTRUCTURE
     1 000         1 TEMP              0 ****  ****    0 ROOT
