@<TRIPOS>MOLECULE
000
    8     7     1     0     0
SMALL
bcc


@<TRIPOS>ATOM
      1 C            0.0060    -0.1390    -0.0440 c          1 000       0.497100
      2 O            1.2290    -0.3850     0.0820 o          1 000      -0.563000
      3 OA          -0.8080    -0.4660     1.0680 os         1 000      -0.528900
      4 CB          -0.1460    -1.0250     2.1750 c3         1 000       0.167700
      5 OXT         -0.6720     0.3500    -0.9740 o          1 000      -0.563000
      6 HB           0.3570    -1.9850     1.8960 h1         1 000      -0.002967
      7 HBA         -0.9430    -1.2120     2.9390 h1         1 000      -0.002967
      8 HBB          0.6220    -0.3200     2.5790 h1         1 000      -0.002967
@<TRIPOS>BOND
     1     1     2 1   
     2     1     3 1   
     3     1     5 1   
     4     3     4 1   
     5     4     6 1   
     6     4     7 1   
     7     4     8 1   
@<TRIPOS>SUBSTRUCTURE
     1 000         1 TEMP              0 ****  ****    0 ROOT
