@<TRIPOS>MOLECULE
001
   87    90     1     0     0
SMALL
bcc


@<TRIPOS>ATOM
      1 C01          0.0000     0.0000     0.0000 ca         1 001      -0.101300
      2 C02          1.3820     0.0000     0.0000 ca         1 001      -0.220000
      3 C03          2.0780     0.0000     1.1990 ca         1 001       0.146100
      4 C04          1.3830    -0.0060     2.4030 ca         1 001       0.055100
      5 C05         -0.0060    -0.0000     2.4000 ca         1 001       0.146100
      6 C06         -0.6950     0.0000     1.1950 ca         1 001      -0.220000
      7 O03          3.4380    -0.0000     1.1970 os         1 001      -0.261900
      8 C07          3.8490    -0.0000    -0.1710 c3         1 001       0.201700
      9 O04          2.0630    -0.0070     3.5830 os         1 001      -0.289900
     10 C08          2.2630    -1.3760     3.9430 c3         1 001       0.232700
     11 O05         -0.6910    -0.0010     3.5750 os         1 001      -0.261900
     12 C09         -2.0810    -0.0010     3.2440 c3         1 001       0.201700
     13 C10         -0.7530     0.0010    -1.3060 c3         1 001       0.382900
     14 F10          0.0040    -0.6570    -2.2800 f          1 001      -0.204800
     15 F11         -1.9750    -0.6580    -1.1400 f          1 001      -0.204800
     16 C11         -1.0030     1.4220    -1.7390 c          1 001       0.547100
     17 O11         -0.2220     1.9760    -2.4840 o          1 001      -0.589100
     18 N12         -2.0950     2.0780    -1.3000 n          1 001      -0.109800
     19 C12         -3.0010     1.4560    -0.3250 c3         1 001      -0.016000
     20 C13         -3.1740     2.4080     0.8630 c3         1 001      -0.050400
     21 C14         -3.6420     3.7730     0.3540 c3         1 001      -0.023400
     22 C15         -2.5830     4.3590    -0.5840 c3         1 001      -0.039400
     23 C16         -2.4000     3.4320    -1.7840 c3         1 001      -0.009300
     24 C17         -1.2680     3.9340    -2.6420 c          1 001       0.711100
     25 O17         -0.1910     4.1670    -2.1450 o          1 001      -0.562000
     26 O18         -1.4540     4.1220    -3.9580 os         1 001      -0.409900
     27 C18         -0.3630     4.6060    -4.7840 c3         1 001       0.194100
     28 C19         -0.3900     6.1360    -4.8220 c3         1 001      -0.054400
     29 C20         -0.2360     6.6830    -3.4020 c3         1 001      -0.040400
     30 C21         -0.2640     8.2120    -3.4390 c3         1 001       0.036900
     31 C22         -0.1120     8.7520    -2.0390 ca         1 001      -0.204600
     32 C23         -1.2260     8.9900    -1.2560 ca         1 001       0.401200
     33 N23         -1.1000     9.4560    -0.0300 nb         1 001      -0.584000
     34 C24          0.0800     9.7240     0.4930 ca         1 001       0.397200
     35 C25          1.2380     9.5160    -0.2320 ca         1 001      -0.217300
     36 C26          1.1460     9.0220    -1.5230 ca         1 001      -0.063000
     37 C27         -0.5170     4.0580    -6.2050 c3         1 001      -0.034400
     38 C28         -0.4890     2.5290    -6.1680 c3         1 001      -0.030400
     39 C29         -0.6430     1.9810    -7.5870 c3         1 001       0.029900
     40 C30         -0.6170     0.4760    -7.5500 ca         1 001      -0.086300
     41 C31         -1.7930    -0.2330    -7.3980 ca         1 001      -0.098000
     42 C32         -1.7680    -1.6150    -7.3640 ca         1 001      -0.098500
     43 C33         -0.5670    -2.2880    -7.4840 ca         1 001      -0.106000
     44 C34          0.6110    -1.5800    -7.6370 ca         1 001      -0.098500
     45 C35          0.5850    -0.1970    -7.6750 ca         1 001      -0.098000
     46 H021         1.9220     0.0020    -0.9390 ha         1 001       0.159000
     47 H061        -1.7780     0.0030     1.1910 ha         1 001       0.159000
     48 H071         4.9310    -0.0060    -0.2230 h1         1 001       0.008367
     49 H072         3.4590    -0.8820    -0.6650 h1         1 001       0.008367
     50 H073         3.4680     0.8870    -0.6620 h1         1 001       0.008367
     51 H081         1.7740    -1.5750     4.8890 h1         1 001      -0.004633
     52 H082         3.3240    -1.5730     4.0370 h1         1 001      -0.004633
     53 H083         1.8430    -2.0160     3.1770 h1         1 001      -0.004633
     54 H091        -2.3170     0.8900     2.6740 h1         1 001       0.008367
     55 H092        -2.6690    -0.0140     4.1540 h1         1 001       0.008367
     56 H093        -2.3110    -0.8790     2.6530 h1         1 001       0.008367
     57 H121        -3.9630     1.2750    -0.7880 h1         1 001       0.053700
     58 H122        -2.5750     0.5210     0.0190 h1         1 001       0.053700
     59 H131        -3.9140     2.0040     1.5430 hc         1 001       0.029700
     60 H132        -2.2270     2.5200     1.3760 hc         1 001       0.029700
     61 H141        -4.5750     3.6560    -0.1840 hc         1 001       0.021700
     62 H142        -3.7860     4.4400     1.1950 hc         1 001       0.021700
     63 H151        -2.9070     5.3340    -0.9280 hc         1 001       0.039700
     64 H152        -1.6440     4.4510    -0.0530 hc         1 001       0.039700
     65 H161        -3.3160     3.4090    -2.3630 h1         1 001       0.042700
     66 H181         0.5800     4.2720    -4.3690 h1         1 001       0.048700
     67 H191        -1.3330     6.4700    -5.2370 hc         1 001       0.022200
     68 H192         0.4240     6.4970    -5.4380 hc         1 001       0.022200
     69 H201        -1.0500     6.3220    -2.7850 hc         1 001       0.031700
     70 H202         0.7070     6.3490    -2.9860 hc         1 001       0.031700
     71 H211         0.5500     8.5740    -4.0550 hc         1 001       0.017700
     72 H212        -1.2070     8.5460    -3.8540 hc         1 001       0.017700
     73 H231        -2.2120     8.7820    -1.6510 h4         1 001      -0.020900
     74 H241         0.1430    10.1080     1.5040 h4         1 001      -0.021900
     75 H251         2.2050     9.7380     0.2030 ha         1 001       0.112000
     76 H261         2.0370     8.8490    -2.1150 ha         1 001       0.112000
     77 H271        -1.4600     4.3920    -6.6200 hc         1 001       0.022200
     78 H272         0.2970     4.4200    -6.8210 hc         1 001       0.022200
     79 H281        -1.3030     2.1680    -5.5510 hc         1 001       0.028700
     80 H282         0.4540     2.1960    -5.7520 hc         1 001       0.028700
     81 H291        -1.5860     2.3150    -8.0030 hc         1 001       0.016200
     82 H292         0.1720     2.3410    -8.2040 hc         1 001       0.016200
     83 H311        -2.7350     0.2940    -7.3040 ha         1 001       0.104500
     84 H321        -2.6900    -2.1710    -7.2440 ha         1 001       0.100500
     85 H331        -0.5470    -3.3710    -7.4560 ha         1 001       0.101000
     86 H341         1.5520    -2.1070    -7.7330 ha         1 001       0.100500
     87 H351         1.5070     0.3580    -7.7950 ha         1 001       0.104500
@<TRIPOS>BOND
     1     1     2 ar  
     2     1     6 ar  
     3     1    13 1   
     4     2     3 ar  
     5     2    46 1   
     6     3     4 ar  
     7     3     7 1   
     8     4     5 ar  
     9     4     9 1   
    10     5     6 ar  
    11     5    11 1   
    12     6    47 1   
    13     7     8 1   
    14     8    48 1   
    15     8    49 1   
    16     8    50 1   
    17     9    10 1   
    18    10    51 1   
    19    10    52 1   
    20    10    53 1   
    21    11    12 1   
    22    12    54 1   
    23    12    55 1   
    24    12    56 1   
    25    13    14 1   
    26    13    15 1   
    27    13    16 1   
    28    16    17 2   
    29    16    18 1   
    30    18    19 1   
    31    18    23 1   
    32    19    20 1   
    33    19    57 1   
    34    19    58 1   
    35    20    21 1   
    36    20    59 1   
    37    20    60 1   
    38    21    22 1   
    39    21    61 1   
    40    21    62 1   
    41    22    23 1   
    42    22    63 1   
    43    22    64 1   
    44    23    24 1   
    45    23    65 1   
    46    24    25 2   
    47    24    26 1   
    48    26    27 1   
    49    27    28 1   
    50    27    37 1   
    51    27    66 1   
    52    28    29 1   
    53    28    67 1   
    54    28    68 1   
    55    29    30 1   
    56    29    69 1   
    57    29    70 1   
    58    30    31 1   
    59    30    71 1   
    60    30    72 1   
    61    31    32 ar  
    62    31    36 ar  
    63    32    33 ar  
    64    32    73 1   
    65    33    34 ar  
    66    34    35 ar  
    67    34    74 1   
    68    35    36 ar  
    69    35    75 1   
    70    36    76 1   
    71    37    38 1   
    72    37    77 1   
    73    37    78 1   
    74    38    39 1   
    75    38    79 1   
    76    38    80 1   
    77    39    40 1   
    78    39    81 1   
    79    39    82 1   
    80    40    41 ar  
    81    40    45 ar  
    82    41    42 ar  
    83    41    83 1   
    84    42    43 ar  
    85    42    84 1   
    86    43    44 ar  
    87    43    85 1   
    88    44    45 ar  
    89    44    86 1   
    90    45    87 1   
@<TRIPOS>SUBSTRUCTURE
     1 001         1 TEMP              0 ****  ****    0 ROOT
