@<TRIPOS>MOLECULE
001
   87    90     1     0     0
SMALL
bcc


@<TRIPOS>ATOM
      1 C01         -1.5180     0.6310     0.0850 ca         1 001      -0.104300
      2 C02         -0.2230     1.1440     0.1110 ca         1 001      -0.195000
      3 C03          0.4020     1.3640     1.3450 ca         1 001       0.135100
      4 C04         -0.2680     1.0650     2.5520 ca         1 001       0.062100
      5 C05         -1.5910     0.5740     2.4960 ca         1 001       0.135100
      6 C06         -2.2140     0.3530     1.2620 ca         1 001      -0.195000
      7 O03          1.6730     1.8790     1.4870 os         1 001      -0.308900
      8 C07          2.3720     2.1760     0.2820 c3         1 001       0.106200
      9 O04          0.3710     1.1300     3.7740 os         1 001      -0.310900
     10 C08          0.6140     2.4630     4.2320 c3         1 001       0.114700
     11 O05         -2.1870     0.3430     3.7160 os         1 001      -0.308900
     12 C09         -3.4840    -0.2470     3.6800 c3         1 001       0.106200
     13 C10         -2.2240     0.3630    -1.2390 c3         1 001       0.414900
     14 F10         -1.4660     0.6660    -2.3520 f          1 001      -0.216300
     15 F11         -3.3110     1.1920    -1.4280 f          1 001      -0.216300
     16 C11         -2.7200    -1.1320    -1.2360 c          1 001       0.628100
     17 O11         -3.9270    -1.3270    -1.0040 o          1 001      -0.577100
     18 N12         -1.8480    -2.1660    -1.5030 n          1 001      -0.435800
     19 C12         -0.4050    -2.0370    -1.4950 c3         1 001       0.084000
     20 C13          0.2700    -2.8450    -2.6060 c3         1 001      -0.089400
     21 C14         -0.1770    -4.2890    -2.5570 c3         1 001      -0.084400
     22 C15         -1.6860    -4.3840    -2.6180 c3         1 001      -0.082400
     23 C16         -2.3670    -3.5220    -1.5390 c3         1 001       0.060700
     24 C17         -2.3030    -4.2940    -0.2190 c          1 001       0.612100
     25 O17         -3.0330    -5.2430     0.0720 o          1 001      -0.538000
     26 O18         -1.3400    -3.9000     0.6600 os         1 001      -0.437900
     27 C18         -1.2810    -4.5600     1.9470 c3         1 001       0.149100
     28 C19         -2.2480    -3.8520     2.8880 c3         1 001      -0.106400
     29 C20         -2.4660    -4.6240     4.1700 c3         1 001      -0.072400
     30 C21         -3.5690    -4.0040     5.0130 c3         1 001      -0.032100
     31 C22         -4.9260    -4.4060     4.5640 ca         1 001      -0.195600
     32 C23         -5.5310    -5.5780     5.0700 ca         1 001       0.396200
     33 N23         -6.7570    -6.0010     4.7130 nb         1 001      -0.662000
     34 C24         -7.4340    -5.2550     3.8170 ca         1 001       0.391200
     35 C25         -6.9230    -4.0720     3.2540 ca         1 001      -0.238300
     36 C26         -5.6520    -3.6460     3.6380 ca         1 001      -0.092000
     37 C27          0.1690    -4.4290     2.3990 c3         1 001      -0.084400
     38 C28          1.0840    -5.3360     1.6060 c3         1 001      -0.076400
     39 C29          2.5230    -5.1930     2.0670 c3         1 001      -0.037100
     40 C30          3.4390    -6.0800     1.3010 ca         1 001      -0.078300
     41 C31          4.3680    -5.5400     0.4040 ca         1 001      -0.128500
     42 C32          5.2310    -6.3760    -0.3030 ca         1 001      -0.128000
     43 C33          5.1760    -7.7570    -0.1210 ca         1 001      -0.132000
     44 C34          4.2530    -8.3020     0.7720 ca         1 001      -0.128000
     45 C35          3.3890    -7.4690     1.4800 ca         1 001      -0.128500
     46 H021         0.2920     1.3740    -0.8340 ha         1 001       0.160500
     47 H061        -3.2440    -0.0320     1.2010 ha         1 001       0.160500
     48 H071         3.3560     2.5650     0.6470 h1         1 001       0.050033
     49 H072         2.5150     1.2520    -0.3290 h1         1 001       0.050033
     50 H073         1.8310     2.9580    -0.3060 h1         1 001       0.050033
     51 H081         1.1350     2.3090     5.2100 h1         1 001       0.045033
     52 H082         1.2690     3.0090     3.5100 h1         1 001       0.045033
     53 H083        -0.3510     3.0050     4.3770 h1         1 001       0.045033
     54 H091        -3.7360    -0.3760     4.7640 h1         1 001       0.050033
     55 H092        -3.4540    -1.2380     3.1630 h1         1 001       0.050033
     56 H093        -4.2140     0.4370     3.1830 h1         1 001       0.050033
     57 H121        -0.1160    -0.9550    -1.6010 h1         1 001       0.064200
     58 H122        -0.0220    -2.4080    -0.4970 h1         1 001       0.064200
     59 H131         0.0280    -2.4020    -3.6070 hc         1 001       0.054200
     60 H132         1.3780    -2.7780    -2.4590 hc         1 001       0.054200
     61 H141         0.2700    -4.8580    -3.4120 hc         1 001       0.053700
     62 H142         0.1880    -4.7610    -1.6050 hc         1 001       0.053700
     63 H151        -2.0460    -4.0400    -3.6230 hc         1 001       0.067200
     64 H152        -2.0180    -5.4460    -2.4770 hc         1 001       0.067200
     65 H161        -3.4770    -3.4640    -1.7800 h1         1 001       0.119700
     66 H181        -1.5700    -5.6400     1.8240 h1         1 001       0.077700
     67 H191        -1.8570    -2.8260     3.1190 hc         1 001       0.056700
     68 H192        -3.2310    -3.7310     2.3560 hc         1 001       0.056700
     69 H201        -1.5180    -4.6310     4.7700 hc         1 001       0.048700
     70 H202        -2.7250    -5.6900     3.9360 hc         1 001       0.048700
     71 H211        -3.4760    -2.8840     4.9840 hc         1 001       0.049700
     72 H212        -3.4260    -4.3220     6.0820 hc         1 001       0.049700
     73 H231        -4.9990    -6.2100     5.8040 h4         1 001       0.020100
     74 H241        -8.4350    -5.6290     3.5400 h4         1 001       0.022100
     75 H251        -7.5140    -3.5020     2.5250 ha         1 001       0.145000
     76 H261        -5.2200    -2.7260     3.2160 ha         1 001       0.133000
     77 H271         0.4970    -3.3620     2.2830 hc         1 001       0.057700
     78 H272         0.2210    -4.6880     3.4880 hc         1 001       0.057700
     79 H281         1.0060    -5.0790     0.5160 hc         1 001       0.047700
     80 H282         0.7590    -6.4040     1.7200 hc         1 001       0.047700
     81 H291         2.5890    -5.4490     3.1590 hc         1 001       0.049700
     82 H292         2.8420    -4.1220     1.9580 hc         1 001       0.049700
     83 H311         4.4180    -4.4510     0.2580 ha         1 001       0.130500
     84 H321         5.9590    -5.9430    -1.0050 ha         1 001       0.130500
     85 H331         5.8570    -8.4150    -0.6790 ha         1 001       0.131000
     86 H341         4.2070    -9.3910     0.9190 ha         1 001       0.130500
     87 H351         2.6640    -7.8990     2.1860 ha         1 001       0.130500
@<TRIPOS>BOND
     1     1     2 ar  
     2     1     6 ar  
     3     1    13 1   
     4     2     3 ar  
     5     2    46 1   
     6     3     4 ar  
     7     3     7 1   
     8     4     5 ar  
     9     4     9 1   
    10     5     6 ar  
    11     5    11 1   
    12     6    47 1   
    13     7     8 1   
    14     8    48 1   
    15     8    49 1   
    16     8    50 1   
    17     9    10 1   
    18    10    51 1   
    19    10    52 1   
    20    10    53 1   
    21    11    12 1   
    22    12    54 1   
    23    12    55 1   
    24    12    56 1   
    25    13    14 1   
    26    13    15 1   
    27    13    16 1   
    28    16    17 2   
    29    16    18 1   
    30    18    19 1   
    31    18    23 1   
    32    19    20 1   
    33    19    57 1   
    34    19    58 1   
    35    20    21 1   
    36    20    59 1   
    37    20    60 1   
    38    21    22 1   
    39    21    61 1   
    40    21    62 1   
    41    22    23 1   
    42    22    63 1   
    43    22    64 1   
    44    23    24 1   
    45    23    65 1   
    46    24    25 2   
    47    24    26 1   
    48    26    27 1   
    49    27    28 1   
    50    27    37 1   
    51    27    66 1   
    52    28    29 1   
    53    28    67 1   
    54    28    68 1   
    55    29    30 1   
    56    29    69 1   
    57    29    70 1   
    58    30    31 1   
    59    30    71 1   
    60    30    72 1   
    61    31    32 ar  
    62    31    36 ar  
    63    32    33 ar  
    64    32    73 1   
    65    33    34 ar  
    66    34    35 ar  
    67    34    74 1   
    68    35    36 ar  
    69    35    75 1   
    70    36    76 1   
    71    37    38 1   
    72    37    77 1   
    73    37    78 1   
    74    38    39 1   
    75    38    79 1   
    76    38    80 1   
    77    39    40 1   
    78    39    81 1   
    79    39    82 1   
    80    40    41 ar  
    81    40    45 ar  
    82    41    42 ar  
    83    41    83 1   
    84    42    43 ar  
    85    42    84 1   
    86    43    44 ar  
    87    43    85 1   
    88    44    45 ar  
    89    44    86 1   
    90    45    87 1   
@<TRIPOS>SUBSTRUCTURE
     1 001         1 TEMP              0 ****  ****    0 ROOT
