@<TRIPOS>MOLECULE
002
   69    69     1     0     0
SMALL
bcc


@<TRIPOS>ATOM
      1 C1           1.6410    -0.1540     0.1100 c3         1 002       0.052500
      2 C2           0.3300    -0.4330     0.8800 c3         1 002      -0.081700
      3 C3          -0.8820    -0.2330    -0.0330 c3         1 002      -0.094400
      4 C4          -2.0120    -1.1590     0.3440 c3         1 002      -0.106100
      5 C5           2.7850    -0.8890    -2.0280 c          1 002       0.551100
      6 C6           2.8910    -0.0850     1.0330 c          1 002       0.654100
      7 C7           4.1580     1.1370     2.7350 c3         1 002      -0.002300
      8 C8           4.4500     2.5780     3.1850 c3         1 002      -0.091400
      9 C10          4.5250    -1.4510    -3.6990 c3         1 002      -0.146400
     10 C11          3.7810     0.3080     3.9680 c          1 002       0.608100
     11 C12          0.1880     0.4640     2.0930 c3         1 002      -0.124100
     12 N3           1.8720    -1.2600    -0.9030 ny         1 002      -0.670800
     13 O6           3.6850    -1.0540     1.0380 o          1 002      -0.636100
     14 O1           2.6780    -0.1880     4.1970 o          1 002      -0.494000
     15 O2           6.9730    -1.4440    -4.9520 oh         1 002      -0.366300
     16 C13          5.2170     3.3830     2.1470 c3         1 002      -0.066700
     17 C20          6.6730     2.9700     2.0900 c3         1 002      -0.099600
     18 C21          5.1110     4.8610     2.4750 c3         1 002      -0.099600
     19 C22          3.5110    -2.0350    -2.7090 c3         1 002      -0.134700
     20 C23          4.2080    -2.9590    -1.7070 c3         1 002      -0.049100
     21 O4           2.8640     0.2910    -2.3450 o          1 002      -0.423100
     22 N2           3.1360     1.0820     1.7010 ns         1 002      -0.487900
     23 C14          3.3040    -4.0080    -1.1630 ca         1 002      -0.181300
     24 C15          2.6790    -4.9250    -2.0190 ca         1 002      -0.139000
     25 C16          1.9020    -5.9550    -1.4950 ca         1 002      -0.111000
     26 C17          1.7510    -6.0860    -0.1120 ca         1 002      -0.089000
     27 C18          2.3810    -5.1830     0.7450 ca         1 002      -0.111000
     28 C19          3.1570    -4.1470     0.2240 ca         1 002      -0.139000
     29 C9           4.8520    -2.4500    -4.7610 c          1 002       0.585100
     30 N1           6.0430    -2.0820    -5.6960 ny         1 002      -0.468300
     31 O3           4.3410    -3.5130    -5.0490 o          1 002      -0.370100
     32 O5           4.7250     0.0520     4.9080 oh         1 002      -0.537100
     33 H1           1.5350     0.8170    -0.4630 hx         1 002       0.135700
     34 H2           0.3490    -1.4990     1.2510 hc         1 002       0.083700
     35 H31         -1.2320     0.8330     0.0490 hc         1 002       0.044700
     36 H32         -0.6270    -0.3900    -1.1140 hc         1 002       0.044700
     37 H41         -2.3090    -1.0070     1.4110 hc         1 002       0.057367
     38 H42         -1.7180    -2.2280     0.2110 hc         1 002       0.057367
     39 H43         -2.9030    -0.9530    -0.2980 hc         1 002       0.057367
     40 H7           5.0990     0.6770     2.3000 h1         1 002       0.105700
     41 H81          3.4890     3.1020     3.4370 hc         1 002       0.074700
     42 H82          5.0520     2.5290     4.1330 hc         1 002       0.074700
     43 H101         5.4660    -1.1510    -3.1520 hc         1 002       0.141200
     44 H102         4.1160    -0.5220    -4.1930 hc         1 002       0.141200
     45 H121        -0.8390     0.3280     2.5210 hc         1 002       0.075033
     46 H122         0.2980     1.5400     1.8180 hc         1 002       0.075033
     47 H123         0.9170     0.1900     2.8970 hc         1 002       0.075033
     48 HN3          0.9630    -1.5460    -1.2910 hn         1 002       0.491300
     49 HO2          7.7980    -1.3290    -5.4840 ho         1 002       0.494000
     50 H13          4.7560     3.2130     1.1340 hc         1 002       0.040700
     51 H201         6.7750     1.8920     1.8170 hc         1 002       0.046200
     52 H202         7.2120     3.5780     1.3230 hc         1 002       0.046200
     53 H203         7.1700     3.1360     3.0760 hc         1 002       0.046200
     54 H211         5.5270     5.0690     3.4900 hc         1 002       0.046200
     55 H212         5.6860     5.4610     1.7290 hc         1 002       0.046200
     56 H213         4.0460     5.1940     2.4520 hc         1 002       0.046200
     57 HN1          6.4200    -2.9570    -6.1160 hn         1 002       0.479800
     58 H22          2.7310    -2.6280    -3.2780 hc         1 002       0.125700
     59 H231         4.6560    -2.3510    -0.8710 hc         1 002       0.088700
     60 H232         5.0600    -3.4700    -2.2370 hc         1 002       0.088700
     61 HN2          2.4060     1.7600     1.7750 hn         1 002       0.337500
     62 H15          2.8250    -4.8540    -3.1080 ha         1 002       0.146500
     63 H16          1.4190    -6.6790    -2.1720 ha         1 002       0.165000
     64 H17          1.1490    -6.9120     0.3010 ha         1 002       0.169000
     65 H18          2.2820    -5.2960     1.8370 ha         1 002       0.165000
     66 H19          3.6820    -3.4580     0.9110 ha         1 002       0.146500
     67 H321         2.2840    -2.0710    -0.3880 hn         1 002       0.491300
     68 H23          5.5670     0.4710     4.6720 ho         1 002       0.439000
     69 H12          5.6990    -1.4640    -6.4550 hn         1 002       0.479800
@<TRIPOS>BOND
     1     1     2 1   
     2     1     6 1   
     3     1    12 1   
     4     1    33 1   
     5     2     3 1   
     6     2    11 1   
     7     2    34 1   
     8     3     4 1   
     9     3    35 1   
    10     3    36 1   
    11     4    37 1   
    12     4    38 1   
    13     4    39 1   
    14     5    12 1   
    15     5    19 1   
    16     5    21 2   
    17     6    13 2   
    18     6    22 1   
    19     7     8 1   
    20     7    10 1   
    21     7    22 1   
    22     7    40 1   
    23     8    16 1   
    24     8    41 1   
    25     8    42 1   
    26     9    19 1   
    27     9    29 1   
    28     9    43 1   
    29     9    44 1   
    30    10    14 2   
    31    10    32 1   
    32    11    45 1   
    33    11    46 1   
    34    11    47 1   
    35    12    48 1   
    36    12    67 1   
    37    15    30 1   
    38    15    49 1   
    39    16    17 1   
    40    16    18 1   
    41    16    50 1   
    42    17    51 1   
    43    17    52 1   
    44    17    53 1   
    45    18    54 1   
    46    18    55 1   
    47    18    56 1   
    48    19    20 1   
    49    19    58 1   
    50    20    23 1   
    51    20    59 1   
    52    20    60 1   
    53    22    61 1   
    54    23    24 ar  
    55    23    28 ar  
    56    24    25 ar  
    57    24    62 1   
    58    25    26 ar  
    59    25    63 1   
    60    26    27 ar  
    61    26    64 1   
    62    27    28 ar  
    63    27    65 1   
    64    28    66 1   
    65    29    30 1   
    66    29    31 2   
    67    30    57 1   
    68    30    69 1   
    69    32    68 1   
@<TRIPOS>SUBSTRUCTURE
     1 002         1 TEMP              0 ****  ****    0 ROOT
