@<TRIPOS>MOLECULE
002
   69    69     1     0     0
SMALL
bcc


@<TRIPOS>ATOM
      1 C1           1.6600    -0.1320     0.0970 c3         1 002       0.052500
      2 C2           0.3520    -0.4460     0.8600 c3         1 002      -0.081700
      3 C3          -0.8610    -0.2480    -0.0510 c3         1 002      -0.094400
      4 C4          -1.9740    -1.2020     0.3040 c3         1 002      -0.106100
      5 C5           2.8390    -0.8280    -2.0340 c          1 002       0.551100
      6 C6           2.9100    -0.0510     1.0190 c          1 002       0.655100
      7 C7           4.1410     1.1530     2.7590 c3         1 002      -0.002300
      8 C8           4.3750     2.5830     3.2720 c3         1 002      -0.091400
      9 C10          4.6080    -1.3490    -3.6870 c3         1 002      -0.157400
     10 C11          3.7910     0.2560     3.9520 c          1 002       0.608100
     11 C12          0.1930     0.4240     2.0900 c3         1 002      -0.124100
     12 N3           1.9090    -1.2210    -0.9310 ny         1 002      -0.668800
     13 O6           3.7310    -0.9980     0.9950 o          1 002      -0.638100
     14 O1           2.7080    -0.2980     4.1460 o          1 002      -0.495000
     15 O2           6.8710    -3.0540    -6.0590 oh         1 002      -0.336300
     16 C13          5.1120     3.4620     2.2720 c3         1 002      -0.066700
     17 C20          6.5830     3.1080     2.2020 c3         1 002      -0.099600
     18 C21          4.9480     4.9190     2.6640 c3         1 002      -0.099600
     19 C22          3.5880    -1.9580    -2.7180 c3         1 002      -0.132700
     20 C23          4.2820    -2.8850    -1.7170 c3         1 002      -0.049100
     21 O4           2.9180     0.3560    -2.3340 o          1 002      -0.424100
     22 N2           3.1260     1.1030     1.7170 ns         1 002      -0.486900
     23 C14          3.3810    -3.9460    -1.1900 ca         1 002      -0.183300
     24 C15          2.7720    -4.8610    -2.0600 ca         1 002      -0.138500
     25 C16          1.9990    -5.9030    -1.5520 ca         1 002      -0.110500
     26 C17          1.8380    -6.0460    -0.1710 ca         1 002      -0.088000
     27 C18          2.4510    -5.1440     0.6990 ca         1 002      -0.110500
     28 C19          3.2220    -4.0970     0.1940 ca         1 002      -0.138500
     29 C9           4.9820    -2.3430    -4.7440 c          1 002       0.542100
     30 N1           6.2060    -1.9700    -5.5990 ny         1 002      -0.461300
     31 O3           4.4590    -3.3990    -5.0450 o          1 002      -0.375100
     32 O5           4.7350     0.0020     4.8900 oh         1 002      -0.536100
     33 H1           1.5380     0.8440    -0.4640 hx         1 002       0.135700
     34 H2           0.3890    -1.5180     1.2110 hc         1 002       0.084700
     35 H31         -1.2300     0.8090     0.0520 hc         1 002       0.044700
     36 H32         -0.6010    -0.3780    -1.1350 hc         1 002       0.044700
     37 H41         -2.2760    -1.0780     1.3730 hc         1 002       0.057367
     38 H42         -1.6610    -2.2620     0.1480 hc         1 002       0.057367
     39 H43         -2.8690    -0.9990    -0.3360 hc         1 002       0.057367
     40 H7           5.1000     0.7490     2.3100 h1         1 002       0.104700
     41 H81          3.3930     3.0580     3.5420 hc         1 002       0.075200
     42 H82          4.9760     2.5180     4.2190 hc         1 002       0.075200
     43 H101         5.5160    -1.0180    -3.1080 hc         1 002       0.132200
     44 H102         4.1730    -0.4370    -4.1940 hc         1 002       0.132200
     45 H121        -0.8320     0.2610     2.5130 hc         1 002       0.075700
     46 H122         0.2830     1.5080     1.8370 hc         1 002       0.075700
     47 H123         0.9250     0.1460     2.8900 hc         1 002       0.075700
     48 HN3          1.0060    -1.5020    -1.3380 hn         1 002       0.491800
     49 HO2          6.2280    -3.6890    -6.4630 ho         1 002       0.493000
     50 H13          4.6590     3.3180     1.2510 hc         1 002       0.040700
     51 H201         6.7270     2.0480     1.8830 hc         1 002       0.046367
     52 H202         7.0990     3.7700     1.4640 hc         1 002       0.046367
     53 H203         7.0710     3.2500     3.1970 hc         1 002       0.046367
     54 H211         5.3530     5.0980     3.6890 hc         1 002       0.046367
     55 H212         5.5000     5.5730     1.9470 hc         1 002       0.046367
     56 H213         3.8700     5.2110     2.6520 hc         1 002       0.046367
     57 HN1          5.9140    -1.3690    -6.3950 hn         1 002       0.493300
     58 H22          2.8250    -2.5550    -3.3060 hc         1 002       0.128700
     59 H231         4.7160    -2.2810    -0.8710 hc         1 002       0.088700
     60 H232         5.1420    -3.3860    -2.2430 hc         1 002       0.088700
     61 HN2          2.3800     1.7620     1.8040 hn         1 002       0.337500
     62 H15          2.9270    -4.7800    -3.1470 ha         1 002       0.146500
     63 H16          1.5300    -6.6260    -2.2380 ha         1 002       0.166000
     64 H17          1.2400    -6.8820     0.2300 ha         1 002       0.170000
     65 H18          2.3430    -5.2680     1.7900 ha         1 002       0.166000
     66 H19          3.7340    -3.4090     0.8910 ha         1 002       0.146500
     67 H321         2.3150    -2.0390    -0.4230 hn         1 002       0.491800
     68 H23          5.5600     0.4680     4.6840 ho         1 002       0.440000
     69 H12          6.9050    -1.4500    -5.0280 hn         1 002       0.493300
@<TRIPOS>BOND
     1     1     2 1   
     2     1     6 1   
     3     1    12 1   
     4     1    33 1   
     5     2     3 1   
     6     2    11 1   
     7     2    34 1   
     8     3     4 1   
     9     3    35 1   
    10     3    36 1   
    11     4    37 1   
    12     4    38 1   
    13     4    39 1   
    14     5    12 1   
    15     5    19 1   
    16     5    21 2   
    17     6    13 2   
    18     6    22 1   
    19     7     8 1   
    20     7    10 1   
    21     7    22 1   
    22     7    40 1   
    23     8    16 1   
    24     8    41 1   
    25     8    42 1   
    26     9    19 1   
    27     9    29 1   
    28     9    43 1   
    29     9    44 1   
    30    10    14 2   
    31    10    32 1   
    32    11    45 1   
    33    11    46 1   
    34    11    47 1   
    35    12    48 1   
    36    12    67 1   
    37    15    30 1   
    38    15    49 1   
    39    16    17 1   
    40    16    18 1   
    41    16    50 1   
    42    17    51 1   
    43    17    52 1   
    44    17    53 1   
    45    18    54 1   
    46    18    55 1   
    47    18    56 1   
    48    19    20 1   
    49    19    58 1   
    50    20    23 1   
    51    20    59 1   
    52    20    60 1   
    53    22    61 1   
    54    23    24 ar  
    55    23    28 ar  
    56    24    25 ar  
    57    24    62 1   
    58    25    26 ar  
    59    25    63 1   
    60    26    27 ar  
    61    26    64 1   
    62    27    28 ar  
    63    27    65 1   
    64    28    66 1   
    65    29    30 1   
    66    29    31 2   
    67    30    57 1   
    68    30    69 1   
    69    32    68 1   
@<TRIPOS>SUBSTRUCTURE
     1 002         1 TEMP              0 ****  ****    0 ROOT
