@<TRIPOS>MOLECULE
molecule
   66    66     1     0     0
SMALL
bcc


@<TRIPOS>ATOM
      1 C1           1.5300     0.0000     0.0000 c3         1 002       0.039700
      2 C2           0.0000     0.0000     0.0000 c3         1 002      -0.077700
      3 C3          -0.5100     1.3070     0.6100 c3         1 002      -0.100400
      4 C4          -0.1400     2.4760    -0.3040 c3         1 002      -0.101100
      5 C5           2.2090    -1.1730    -2.0240 c          1 002       0.664100
      6 C6           2.0320     0.0000     1.4210 c          1 002       0.657100
      7 C7           2.5340     1.1550     3.5070 c3         1 002       0.001700
      8 C8           2.8600     2.6020     3.8820 c3         1 002      -0.071400
      9 C10          1.5180    -3.4960    -2.5510 c3         1 002      -0.147400
     10 C11          1.5570     0.5860     4.5040 c          1 002       0.888600
     11 C12         -0.5110    -1.1830     0.8250 c3         1 002      -0.097100
     12 N3           2.0190    -1.1960    -0.6900 ns         1 002      -0.564900
     13 O6           2.5160    -1.0070     1.8930 o          1 002      -0.632100
     14 O1           0.4770     0.1920     4.1320 o          1 002      -0.841300
     15 O2          -2.1730    -3.1880    -3.3140 oh         1 002      -0.362100
     16 C13          3.9230     3.1490     2.9270 c3         1 002      -0.085700
     17 C20          4.1270     4.6420     3.1930 c3         1 002      -0.086600
     18 C21          5.2410     2.4060     3.1510 c3         1 002      -0.086600
     19 C22          2.6010    -2.4340    -2.7510 c3         1 002      -0.119700
     20 C23          2.7540    -2.1350    -4.2440 c3         1 002      -0.033100
     21 O4           2.0660    -0.1380    -2.6400 o          1 002      -0.601100
     22 N2           1.9430     1.1190     2.1680 ns         1 002      -0.542900
     23 C14          3.2970    -3.3530    -4.9460 ca         1 002      -0.079300
     24 C15          2.4330    -4.2360    -5.5670 ca         1 002      -0.129500
     25 C16          2.9320    -5.3530    -6.2110 ca         1 002      -0.130000
     26 C17          4.2940    -5.5870    -6.2360 ca         1 002      -0.140000
     27 C18          5.1580    -4.7030    -5.6150 ca         1 002      -0.130000
     28 C19          4.6600    -3.5850    -4.9750 ca         1 002      -0.129500
     29 H1           1.8910     0.8840    -0.5110 h1         1 002       0.081700
     30 H2          -0.3610    -0.0880    -1.0180 hc         1 002       0.064700
     31 H31         -0.0580     1.4520     1.5830 hc         1 002       0.064700
     32 H32         -1.5870     1.2590     0.7160 hc         1 002       0.064700
     33 H41         -0.5940     3.3850     0.0710 hc         1 002       0.029033
     34 H42          0.9370     2.5920    -0.3240 hc         1 002       0.029033
     35 H43         -0.5010     2.2790    -1.3060 hc         1 002       0.029033
     36 H7           3.4440     0.5670     3.5170 h1         1 002       0.071700
     37 H81          1.9630     3.2050     3.8080 hc         1 002       0.056700
     38 H82          3.2350     2.6370     4.8980 hc         1 002       0.056700
     39 H101         1.4640    -3.7630    -1.5020 hc         1 002       0.068700
     40 H102         1.7610    -4.3750    -3.1360 hc         1 002       0.068700
     41 H121        -1.2110    -1.7600     0.2340 hc         1 002       0.043367
     42 H122         0.3240    -1.8100     1.1120 hc         1 002       0.043367
     43 H123        -1.0080    -0.8140     1.7150 hc         1 002       0.043367
     44 HN3          2.2650    -2.0110    -0.1640 hn         1 002       0.330500
     45 HO2         -2.7990    -3.8900    -3.3700 ho         1 002       0.391000
     46 H13          3.5970     3.0050     1.9040 hc         1 002       0.039700
     47 H201         3.1780     5.1570     3.1100 hc         1 002       0.027533
     48 H202         4.8220     5.0470     2.4660 hc         1 002       0.027533
     49 H203         4.5270     4.7800     4.1900 hc         1 002       0.027533
     50 H211         5.3720     2.2120     4.2090 hc         1 002       0.027533
     51 H212         5.2230     1.4670     2.6110 hc         1 002       0.027533
     52 H213         6.0630     3.0130     2.7910 hc         1 002       0.027533
     53 HN1         -0.8580    -4.6410    -2.5520 hn         1 002       0.315500
     54 H22          3.5420    -2.8000    -2.3580 hc         1 002       0.068700
     55 H231         1.7880    -1.8790    -4.6620 hc         1 002       0.083700
     56 H232         3.4380    -1.3060    -4.3780 hc         1 002       0.083700
     57 HN2          1.5050     1.9370     1.7930 hn         1 002       0.306500
     58 H15          1.3650    -4.0530    -5.5480 ha         1 002       0.134000
     59 H16          2.2550    -6.0450    -6.6970 ha         1 002       0.123500
     60 H17          4.6840    -6.4630    -6.7390 ha         1 002       0.122000
     61 H18          6.2250    -4.8850    -5.6360 ha         1 002       0.123500
     62 H19          5.3370    -2.8930    -4.4890 ha         1 002       0.134000
     63 C9           0.1880    -2.9470    -2.9980 c          1 002       0.662100
     64 O5           1.8850     0.5180     5.8030 o          1 002      -0.841300
     65 N1          -0.9220    -3.7030    -2.8940 ns         1 002      -0.475400
     66 O3           0.1170    -1.8250    -3.4520 o          1 002      -0.551100
@<TRIPOS>BOND
     1     1     2 1
     2     1     6 1
     3     1    12 1
     4     1    29 1
     5     2     3 1
     6     2    11 1
     7     2    30 1
     8     3     4 1
     9     3    31 1
    10     3    32 1
    11     4    33 1
    12     4    34 1
    13     4    35 1
    14     5    12 1
    15     5    19 1
    16     5    21 2
    17     6    13 2
    18     6    22 1
    19     7     8 1
    20     7    10 1
    21     7    22 1
    22     7    36 1
    23     8    16 1
    24     8    37 1
    25     8    38 1
    26    63     9 1
    27    63    65 1
    28    63    66 2
    29     9    19 1
    30     9    39 1
    31     9    40 1
    32    10    14 1
    33    10    64 1
    34    11    41 1
    35    11    42 1
    36    11    43 1
    37    12    44 1
    38    15    65 1
    39    15    45 1
    40    16    17 1
    41    16    18 1
    42    16    46 1
    43    17    47 1
    44    17    48 1
    45    17    49 1
    46    18    50 1
    47    18    51 1
    48    18    52 1
    49    65    53 1
    50    19    20 1
    51    19    54 1
    52    20    23 1
    53    20    55 1
    54    20    56 1
    55    22    57 1
    56    23    24 ar
    57    23    28 ar
    58    24    25 ar
    59    24    58 1
    60    25    26 ar
    61    25    59 1
    62    26    27 ar
    63    26    60 1
    64    27    28 ar
    65    27    61 1
    66    28    62 1
@<TRIPOS>SUBSTRUCTURE
     1 002         1 TEMP              0 ****  ****    0 ROOT
