@<TRIPOS>MOLECULE
007
   31    32     1     0     0
SMALL
bcc


@<TRIPOS>ATOM
      1 C1          -0.1450     0.0040     0.0580 c3         1 007      -0.078900
      2 C2           1.3750    -0.0490    -0.0350 c3         1 007      -0.087900
      3 C3          -0.5220    -0.4490     1.4790 c3         1 007      -0.019700
      4 C4           1.9100    -0.0740     1.3900 c3         1 007      -0.087900
      5 C5           0.7090    -0.0650     2.3260 c3         1 007      -0.078900
      6 C6          -1.7940     0.1620     1.9820 ca         1 007      -0.144300
      7 C7          -2.8220     0.5000     1.0900 ca         1 007      -0.143000
      8 C8          -1.9780     0.3940     3.3510 ca         1 007      -0.143000
      9 C9          -4.0040     1.0710     1.5590 ca         1 007      -0.113000
     10 C10         -3.1620     0.9640     3.8170 ca         1 007      -0.113000
     11 C11         -4.1770     1.3040     2.9240 ca         1 007      -0.102000
     12 C12         -0.6520    -1.9870     1.5380 c3         1 007       0.105800
     13 N13         -1.8900    -2.4860     0.8730 nz         1 007      -0.838600
     14 H1C1        -0.4980     1.0580    -0.0950 hc         1 007       0.061200
     15 H1C2        -0.6200    -0.6270    -0.7310 hc         1 007       0.061200
     16 H2C1         1.7620     0.8390    -0.5940 hc         1 007       0.062450
     17 H2C2         1.7040    -0.9610    -0.5940 hc         1 007       0.062450
     18 H4C1         2.5350    -0.9880     1.5590 hc         1 007       0.062450
     19 H4C2         2.5630     0.8130     1.5880 hc         1 007       0.062450
     20 H5C1         0.8550    -0.7630     3.1870 hc         1 007       0.061200
     21 H5C2         0.5540     0.9640     2.7430 hc         1 007       0.061200
     22 H7          -2.6870     0.3630     0.0060 ha         1 007       0.137000
     23 H8          -1.1810     0.1410     4.0680 ha         1 007       0.137000
     24 H9          -4.7980     1.3520     0.8480 ha         1 007       0.156000
     25 H10         -3.2890     1.1540     4.8960 ha         1 007       0.156000
     26 H11         -5.1080     1.7650     3.2920 ha         1 007       0.160000
     27 H121        -0.6920    -2.3200     2.6150 hx         1 007       0.110200
     28 H122         0.2390    -2.4560     1.0290 hx         1 007       0.110200
     29 H131        -2.7050    -1.9750     1.2440 hn         1 007       0.460800
     30 H132        -1.8390    -2.3150    -0.1370 hn         1 007       0.460800
     31 H133        -2.0060    -3.4880     1.0410 hn         1 007       0.460800
@<TRIPOS>BOND
     1     1     2 1   
     2     1     3 1   
     3     1    14 1   
     4     1    15 1   
     5     2     4 1   
     6     2    16 1   
     7     2    17 1   
     8     3     5 1   
     9     3     6 1   
    10     3    12 1   
    11     4     5 1   
    12     4    18 1   
    13     4    19 1   
    14     5    20 1   
    15     5    21 1   
    16     6     7 ar  
    17     6     8 ar  
    18     7     9 ar  
    19     7    22 1   
    20     8    10 ar  
    21     8    23 1   
    22     9    11 ar  
    23     9    24 1   
    24    10    11 ar  
    25    10    25 1   
    26    11    26 1   
    27    12    13 1   
    28    12    27 1   
    29    12    28 1   
    30    13    29 1   
    31    13    30 1   
    32    13    31 1   
@<TRIPOS>SUBSTRUCTURE
     1 007         1 TEMP              0 ****  ****    0 ROOT
