@<TRIPOS>MOLECULE
molecule
   31    32     1     0     0
SMALL
bcc


@<TRIPOS>ATOM
      1 C1           0.0000     0.0000     0.0000 c3         1 007      -0.082900
      2 C2           1.5490     0.0000     0.0000 c3         1 007      -0.080400
      3 C3          -0.3770     0.9200     1.1790 c3         1 007      -0.045700
      4 C4           1.8900     0.0000     1.5100 c3         1 007      -0.080400
      5 C5           0.8240     0.9200     2.1380 c3         1 007      -0.082900
      6 C6          -1.6000     0.3860     1.8800 ca         1 007      -0.133300
      7 C7          -2.5140    -0.3820     1.1850 ca         1 007      -0.139500
      8 C8          -1.8030     0.6590     3.2180 ca         1 007      -0.139500
      9 C9          -3.6350    -0.8720     1.8270 ca         1 007      -0.105500
     10 C10         -2.9270     0.1730     3.8600 ca         1 007      -0.105500
     11 C11         -3.8420    -0.5940     3.1650 ca         1 007      -0.101000
     12 C12         -0.6440     2.3390     0.6710 c3         1 007       0.112800
     13 N13         -0.8770     3.2320     1.8150 nz         1 007      -0.811600
     14 H1C1        -0.3780     0.4050    -0.9310 hc         1 007       0.057700
     15 H1C2        -0.3780    -1.0020     0.1670 hc         1 007       0.057700
     16 H2C1         1.9310     0.8940    -0.4780 hc         1 007       0.065700
     17 H2C2         1.9310    -0.8940    -0.4780 hc         1 007       0.065700
     18 H4C1         2.8810     0.4050     1.6730 hc         1 007       0.065700
     19 H4C2         1.8100    -1.0020     1.9150 hc         1 007       0.065700
     20 H5C1         1.2170     1.9240     2.2390 hc         1 007       0.057700
     21 H5C2         0.5260     0.5330     3.1050 hc         1 007       0.057700
     22 H7          -2.3530    -0.6000     0.1360 ha         1 007       0.128000
     23 H8          -1.0860     1.2610     3.7640 ha         1 007       0.128000
     24 H9          -4.3530    -1.4740     1.2820 ha         1 007       0.152000
     25 H10         -3.0870     0.3890     4.9090 ha         1 007       0.152000
     26 H11         -4.7210    -0.9760     3.6690 ha         1 007       0.156000
     27 H121        -1.5180     2.3360     0.0320 hx         1 007       0.109200
     28 H122         0.2140     2.6890     0.1090 hx         1 007       0.109200
     29 H131        -1.8300     3.1560     2.1090 hn         1 007       0.456467
     30 H132        -0.6860     4.1770     1.5440 hn         1 007       0.456467
     31 H133        -0.2730     2.9720     2.5690 hn         1 007       0.456467
@<TRIPOS>BOND
     1     1     2 1
     2     1     3 1
     3     1    14 1
     4     1    15 1
     5     2     4 1
     6     2    16 1
     7     2    17 1
     8     3     5 1
     9     3     6 1
    10     3    12 1
    11     4     5 1
    12     4    18 1
    13     4    19 1
    14     5    20 1
    15     5    21 1
    16     6     7 ar
    17     6     8 ar
    18     7     9 ar
    19     7    22 1
    20     8    10 ar
    21     8    23 1
    22     9    11 ar
    23     9    24 1
    24    10    11 ar
    25    10    25 1
    26    11    26 1
    27    12    13 1
    28    12    27 1
    29    12    28 1
    30    13    29 1
    31    13    30 1
    32    31    13 1
@<TRIPOS>SUBSTRUCTURE
     1 007         1 TEMP              0 ****  ****    0 ROOT
