@<TRIPOS>MOLECULE
008
   50    52     1     0     0
SMALL
bcc


@<TRIPOS>ATOM
      1 F7           0.2800    -1.7670    -0.4770 f          1 008      -0.162900
      2 C1           1.3800    -1.0090    -0.2180 ca         1 008       0.085900
      3 C2           1.9710    -1.0510     1.0540 ca         1 008      -0.130000
      4 C3           3.1060    -0.2820     1.3050 ca         1 008      -0.065000
      5 C4           3.6500     0.5200     0.3000 ca         1 008      -0.116000
      6 C5           3.0540     0.5700    -0.9590 ca         1 008      -0.085000
      7 C6           1.9130    -0.1870    -1.2400 ca         1 008      -0.204300
      8 C8           1.2150    -0.0540    -2.5450 c3         1 008      -0.046100
      9 C9           1.6300    -1.1270    -3.5660 c3         1 008       0.133500
     10 N10          1.5410    -2.4960    -2.9500 nz         1 008      -0.843600
     11 C11          0.7670    -1.0290    -4.8320 c3         1 008      -0.179400
     12 C12          1.2790     0.0670    -5.7480 c          1 008       0.671100
     13 O13          2.1600     0.8690    -5.3630 o          1 008      -0.643100
     14 N14          0.7240     0.2460    -7.0180 n          1 008      -0.451800
     15 C19         -0.3340    -0.6330    -7.5140 c3         1 008       0.119300
     16 C18          0.1820    -1.6740    -8.4560 ca         1 008      -0.153300
     17 C20         -0.2410    -3.0000    -8.4290 ca         1 008      -0.110000
     18 C21          0.2680    -3.9000    -9.3680 ca         1 008      -0.104000
     19 C22          1.2010    -3.4770   -10.3150 ca         1 008      -0.091000
     20 C17          1.1110    -1.2400    -9.4170 ca         1 008      -0.096300
     21 C23          1.6280    -2.1460   -10.3420 ca         1 008      -0.095000
     22 C16          1.4460     0.2050    -9.4540 c3         1 008      -0.040100
     23 C15          1.5930     0.8160    -8.0390 c3         1 008       0.048700
     24 C24          1.3970     2.3360    -8.1870 c          1 008       0.522100
     25 O25          1.2340     2.9740    -9.2090 o          1 008      -0.366100
     26 N26          1.4920     3.1460    -6.9180 nz         1 008      -0.760400
     27 H2           1.5260    -1.6790     1.8440 ha         1 008       0.181000
     28 H3           3.5700    -0.3050     2.3070 ha         1 008       0.177000
     29 H4           4.5480     1.1270     0.5070 ha         1 008       0.171000
     30 H5           3.4780     1.2260    -1.7360 ha         1 008       0.146000
     31 H8C1         0.1020    -0.0930    -2.3810 hc         1 008       0.095200
     32 H8C2         1.4620     0.9380    -3.0160 hc         1 008       0.095200
     33 H9           2.7200    -0.9680    -3.8390 hx         1 008       0.131700
     34 H101         2.1740    -2.5280    -2.1360 hn         1 008       0.470467
     35 H102         0.5870    -2.6690    -2.6070 hn         1 008       0.470467
     36 H111        -0.2990    -0.8030    -4.5500 hc         1 008       0.107200
     37 H112         0.7780    -1.9970    -5.4080 hc         1 008       0.107200
     38 H191        -1.0670     0.0290    -8.0680 h1         1 008       0.083200
     39 H192        -0.8860    -1.0990    -6.6520 h1         1 008       0.083200
     40 H20         -0.9890    -3.3340    -7.6940 ha         1 008       0.139000
     41 H21         -0.0770    -4.9470    -9.3670 ha         1 008       0.164000
     42 H22          1.5980    -4.1910   -11.0560 ha         1 008       0.169000
     43 H23          2.3540    -1.8150   -11.1020 ha         1 008       0.159000
     44 H161         2.4100     0.3850   -10.0020 hc         1 008       0.099700
     45 H162         0.6320     0.7420   -10.0180 hc         1 008       0.099700
     46 H15          2.6790     0.6910    -7.7180 h1         1 008       0.115700
     47 H261         0.6000     3.0990    -6.4160 hn         1 008       0.476800
     48 H262         1.6990     4.1300    -7.1320 hn         1 008       0.476800
     49 H103         1.8050    -3.2210    -3.6210 hn         1 008       0.470467
     50 H263         2.2280     2.7570    -6.3080 hn         1 008       0.476800
@<TRIPOS>BOND
     1     1     2 1   
     2     2     3 ar  
     3     2     7 ar  
     4     3     4 ar  
     5     3    27 1   
     6     4     5 ar  
     7     4    28 1   
     8     5     6 ar  
     9     5    29 1   
    10     6     7 ar  
    11     6    30 1   
    12     7     8 1   
    13     8     9 1   
    14     8    31 1   
    15     8    32 1   
    16     9    10 1   
    17     9    11 1   
    18     9    33 1   
    19    10    34 1   
    20    10    35 1   
    21    10    49 1   
    22    11    12 1   
    23    11    36 1   
    24    11    37 1   
    25    12    13 2   
    26    12    14 1   
    27    14    15 1   
    28    14    23 1   
    29    15    16 1   
    30    15    38 1   
    31    15    39 1   
    32    16    17 ar  
    33    16    20 ar  
    34    17    18 ar  
    35    17    40 1   
    36    18    19 ar  
    37    18    41 1   
    38    19    21 ar  
    39    19    42 1   
    40    20    21 ar  
    41    20    22 1   
    42    21    43 1   
    43    22    23 1   
    44    22    44 1   
    45    22    45 1   
    46    23    24 1   
    47    23    46 1   
    48    24    25 2   
    49    24    26 1   
    50    26    47 1   
    51    26    48 1   
    52    26    50 1   
@<TRIPOS>SUBSTRUCTURE
     1 008         1 TEMP              0 ****  ****    0 ROOT
