@<TRIPOS>MOLECULE
molecule
   50    52     1     0     0
SMALL
bcc


@<TRIPOS>ATOM
      1 F7           0.0000     0.0000     0.0000 f          1 008      -0.156900
      2 C1           1.3510     0.0000     0.0000 ca         1 008       0.095900
      3 C2           2.0430     0.0000     1.1990 ca         1 008      -0.135000
      4 C3           3.4240     0.0010     1.1990 ca         1 008      -0.064000
      5 C4           4.1150    -0.0040     0.0020 ca         1 008      -0.113000
      6 C5           3.4250    -0.0100    -1.1950 ca         1 008      -0.089000
      7 C6           2.0440    -0.0100    -1.1970 ca         1 008      -0.201300
      8 C8           1.2920    -0.0160    -2.5030 c3         1 008      -0.047100
      9 C9           1.0380    -1.4610    -2.9390 c3         1 008       0.128500
     10 N10          0.2440    -2.1490    -1.9140 nz         1 008      -0.814600
     11 C11          0.2760    -1.4660    -4.2650 c3         1 008      -0.180400
     12 C12          0.0260    -2.8880    -4.6950 c          1 008       0.661100
     13 O13          0.4180    -3.8070    -4.0070 o          1 008      -0.743100
     14 N14         -0.6360    -3.1390    -5.8420 n          1 008      -0.439800
     15 C19         -1.2400    -2.0590    -6.6260 c3         1 008       0.145300
     16 C18         -0.9310    -2.2580    -8.0890 ca         1 008      -0.130300
     17 C20         -1.2080    -1.2120    -8.9580 ca         1 008      -0.107000
     18 C21         -0.9570    -1.3380   -10.3080 ca         1 008      -0.085000
     19 C22         -0.4270    -2.5160   -10.7990 ca         1 008      -0.086000
     20 C17         -0.3930    -3.4280    -8.5750 ca         1 008      -0.102300
     21 C23         -0.1460    -3.5540    -9.9370 ca         1 008      -0.103000
     22 C16         -0.0360    -4.5920    -7.6900 c3         1 008      -0.050100
     23 C15         -0.7730    -4.5100    -6.3610 c3         1 008       0.033700
     24 C24         -0.1770    -5.4890    -5.3840 c          1 008       0.509100
     25 O25         -0.8970    -6.2170    -4.7360 o          1 008      -0.387100
     26 N26          1.1610    -5.5570    -5.2300 nz         1 008      -0.669400
     27 H2           1.5010     0.0040     2.1370 ha         1 008       0.176000
     28 H3           3.9650     0.0030     2.1380 ha         1 008       0.174000
     29 H4           5.1990    -0.0030     0.0030 ha         1 008       0.168000
     30 H5           3.9680    -0.0160    -2.1330 ha         1 008       0.145000
     31 H8C1         1.8780     0.4920    -3.2600 hc         1 008       0.097200
     32 H8C2         0.3450     0.4950    -2.3770 hc         1 008       0.097200
     33 H9           1.9850    -1.9710    -3.0650 hx         1 008       0.115700
     34 H101        -0.4560    -1.5270    -1.5610 hn         1 008       0.465467
     35 H102        -0.1970    -2.9520    -2.3170 hn         1 008       0.465467
     36 H111         0.8630    -0.9580    -5.0210 hc         1 008       0.121200
     37 H112        -0.6710    -0.9550    -4.1400 hc         1 008       0.121200
     38 H191        -0.8150    -1.1160    -6.3060 h1         1 008       0.086700
     39 H192        -2.3150    -2.0890    -6.4900 h1         1 008       0.086700
     40 H20         -1.6230    -0.2880    -8.5720 ha         1 008       0.147000
     41 H21         -1.1790    -0.5190   -10.9810 ha         1 008       0.167000
     42 H22         -0.2270    -2.6210   -11.8590 ha         1 008       0.167000
     43 H23          0.2690    -4.4760   -10.3240 ha         1 008       0.148000
     44 H161         1.0320    -4.5820    -7.5050 hc         1 008       0.064700
     45 H162        -0.3070    -5.5140    -8.1900 hc         1 008       0.064700
     46 H15         -1.8220    -4.7350    -6.5150 h1         1 008       0.154700
     47 H261         1.3750    -5.8480    -4.2970 hn         1 008       0.478133
     48 H262         1.5620    -4.6550    -5.3990 hn         1 008       0.478133
     49 H103         0.8420    -2.4360    -1.1650 hn         1 008       0.465467
     50 H263         1.5400    -6.2080    -5.8890 hn         1 008       0.478133
@<TRIPOS>BOND
     1     1     2 1
     2     2     3 ar
     3     2     7 ar
     4     3     4 ar
     5     3    27 1
     6     4     5 ar
     7     4    28 1
     8     5     6 ar
     9     5    29 1
    10     6     7 ar
    11     6    30 1
    12     7     8 1
    13     8     9 1
    14     8    31 1
    15     8    32 1
    16     9    10 1
    17     9    11 1
    18     9    33 1
    19    10    34 1
    20    10    35 1
    21    11    12 1
    22    11    36 1
    23    11    37 1
    24    12    13 2
    25    12    14 1
    26    14    15 1
    27    14    23 1
    28    15    16 1
    29    15    38 1
    30    15    39 1
    31    16    17 ar
    32    16    20 ar
    33    17    18 ar
    34    17    40 1
    35    18    19 ar
    36    18    41 1
    37    19    21 ar
    38    19    42 1
    39    20    21 ar
    40    20    22 1
    41    21    43 1
    42    22    23 1
    43    22    44 1
    44    22    45 1
    45    23    24 1
    46    23    46 1
    47    24    25 2
    48    24    26 1
    49    26    47 1
    50    26    48 1
    51    49    10 1
    52    50    26 1
@<TRIPOS>SUBSTRUCTURE
     1 008         1 TEMP              0 ****  ****    0 ROOT
