@<TRIPOS>MOLECULE
009
   90    94     1     0     0
SMALL
bcc


@<TRIPOS>ATOM
      1 C            0.6910     1.5280    -1.7850 c          1 009       0.535100
      2 O            0.7300     1.8760    -2.9510 o          1 009      -0.370100
      3 N            1.8140     2.0540    -0.9080 ny         1 009      -0.679800
      4 CA           2.9580     1.0850    -0.7070 c3         1 009       0.110500
      5 CB           4.2870     1.6840    -1.2040 c3         1 009      -0.045100
      6 CG           4.2170     2.1220    -2.6210 ca         1 009      -0.168300
      7 CD1          4.0980     3.4840    -2.9280 ca         1 009      -0.130000
      8 CD2          4.3320     1.1880    -3.6570 ca         1 009      -0.130000
      9 CE1          4.0830     3.9030    -4.2580 ca         1 009      -0.106500
     10 CE2          4.3160     1.6100    -4.9860 ca         1 009      -0.106500
     11 CZ           4.1890     2.9660    -5.2880 ca         1 009      -0.086000
     12 C1           3.0980     0.6330     0.7750 c3         1 009       0.109100
     13 OG           4.2000     1.2290     1.4270 oh         1 009      -0.583800
     14 C2           3.3900    -0.8840     0.8110 c3         1 009       0.111800
     15 N2           3.3810    -1.4170     2.2000 ny         1 009      -0.767000
     16 C20          3.8550    -2.8470     2.2630 c3         1 009       0.179100
     17 C21          5.3270    -2.9480     2.0570 ca         1 009      -0.141300
     18 C22          5.8300    -3.2990     0.8040 ca         1 009      -0.174000
     19 C23          7.2110    -3.4370     0.6470 ca         1 009      -0.075000
     20 C24          8.0760    -3.2190     1.7060 ca         1 009      -0.156000
     21 C25          7.5850    -2.8470     2.9910 ca         1 009       0.211600
     22 C26          6.1780    -2.7230     3.1400 ca         1 009      -0.199000
     23 N27          8.4460    -2.5630     4.0420 nh         1 009      -0.663000
     24 C28          9.8560    -2.8120     3.8820 c3         1 009       0.188100
     25 C29          7.9210    -2.5010     5.3800 c3         1 009       0.188100
     26 C30         -0.4180     0.6880    -1.1210 c3         1 009       0.010400
     27 N31          0.1930    -0.3710    -0.3090 ns         1 009      -0.535900
     28 C32         -0.0470    -0.0510     1.0840 c          1 009       0.759500
     29 O33          0.4580    -0.7220     2.0080 o          1 009      -0.661500
     30 N34         -0.7000     1.1890     1.2130 n          1 009      -0.459800
     31 C35         -1.1800     1.6190    -0.0950 c3         1 009       0.039000
     32 C36         -1.4280     1.5540     2.4160 c3         1 009       0.136300
     33 C41         -1.1850     2.9750     2.8260 ca         1 009      -0.139300
     34 C42         -0.3360     3.2580     3.9000 ca         1 009      -0.123000
     35 C43         -1.8540     4.0180     2.1760 ca         1 009      -0.123000
     36 C44         -1.6790     5.3340     2.6010 ca         1 009      -0.121000
     37 C45         -0.1630     4.5750     4.3250 ca         1 009      -0.121000
     38 C46         -0.8330     5.6140     3.6760 ca         1 009      -0.098000
     39 C51         -1.3500     0.2070    -2.2530 c3         1 009      -0.034100
     40 C52         -4.5750    -1.3560    -1.0340 ca         1 009      -0.111500
     41 C53         -4.2460    -2.7120    -1.0470 ca         1 009      -0.092000
     42 C54         -2.9710    -3.1140    -1.4480 ca         1 009      -0.111500
     43 C55         -2.0250    -2.1630    -1.8270 ca         1 009      -0.130500
     44 C56         -2.3440    -0.7990    -1.7980 ca         1 009      -0.144300
     45 C57         -3.6300    -0.4020    -1.4120 ca         1 009      -0.130500
     46 HN           2.2020     2.8950    -1.3770 hn         1 009       0.465800
     47 HA           2.7220     0.1820    -1.3470 hx         1 009       0.119700
     48 HB           4.5950     2.5430    -0.5470 hc         1 009       0.091200
     49 HBA          5.0650     0.8810    -1.0770 hc         1 009       0.091200
     50 HD1          4.0620     4.2340    -2.1240 ha         1 009       0.128500
     51 HD2          4.4570     0.1190    -3.4250 ha         1 009       0.128500
     52 HE1          4.0020     4.9760    -4.4950 ha         1 009       0.160500
     53 HE2          4.4160     0.8720    -5.7980 ha         1 009       0.160500
     54 HZ           4.1860     3.3000    -6.3390 ha         1 009       0.166000
     55 H1           2.1560     0.8530     1.3600 h1         1 009       0.071700
     56 HOG          4.0030     2.1630     1.5840 ho         1 009       0.439000
     57 H2           4.4140    -1.0820     0.3710 hx         1 009       0.124200
     58 H2A          2.6070    -1.4370     0.2210 hx         1 009       0.124200
     59 HN2          2.4240    -1.3570     2.5800 hn         1 009       0.468800
     60 H20          3.5680    -3.2340     3.2850 hx         1 009       0.109200
     61 H20A         3.2910    -3.4310     1.4800 hx         1 009       0.109200
     62 H22          5.1570    -3.5040    -0.0390 ha         1 009       0.128000
     63 H23          7.6180    -3.7380    -0.3330 ha         1 009       0.156000
     64 H24          9.1580    -3.3520     1.5410 ha         1 009       0.163000
     65 H26          5.7450    -2.4740     4.1200 ha         1 009       0.135000
     66 H28         10.0650    -3.8970     3.6760 h1         1 009       0.052533
     67 H28A        10.4020    -2.5100     4.8140 h1         1 009       0.052533
     68 H28B        10.2490    -2.1950     3.0290 h1         1 009       0.052533
     69 H29          7.3120    -3.4130     5.6290 h1         1 009       0.052533
     70 H29A         7.2700    -1.5910     5.4830 h1         1 009       0.052533
     71 H29B         8.7590    -2.4200     6.1220 h1         1 009       0.052533
     72 HN31        -0.0870    -1.3010    -0.5660 hn         1 009       0.340500
     73 H35         -2.2920     1.4700    -0.2070 h1         1 009       0.096200
     74 H35A        -0.9500     2.7060    -0.2460 h1         1 009       0.096200
     75 H36         -1.1010     0.8530     3.2390 h1         1 009       0.084700
     76 H36A        -2.5350     1.4030     2.2420 h1         1 009       0.084700
     77 H42          0.1740     2.4410     4.4320 ha         1 009       0.130000
     78 H43         -2.5430     3.7970     1.3470 ha         1 009       0.130000
     79 H44         -2.2210     6.1520     2.1010 ha         1 009       0.154000
     80 H45          0.4890     4.7940     5.1850 ha         1 009       0.154000
     81 H46         -0.7060     6.6520     4.0220 ha         1 009       0.159000
     82 H51         -1.8710     1.1130    -2.6700 hc         1 009       0.091700
     83 H51A        -0.7230    -0.2270    -3.0800 hc         1 009       0.091700
     84 H54         -2.7190    -4.1860    -1.4840 ha         1 009       0.157500
     85 H55         -1.0400    -2.4950    -2.1910 ha         1 009       0.130000
     86 H57         -3.9140     0.6610    -1.4370 ha         1 009       0.130000
     87 H52         -5.5880    -1.0370    -0.7410 ha         1 009       0.157500
     88 H21          1.4210     2.3320    -0.0040 hn         1 009       0.465800
     89 H231         4.0100    -0.8370     2.7750 hn         1 009       0.468800
     90 H53         -4.9960    -3.4650    -0.7560 ha         1 009       0.163000
@<TRIPOS>BOND
     1     1     2 2   
     2     1     3 1   
     3     1    26 1   
     4     3     4 1   
     5     3    46 1   
     6     3    88 1   
     7     4     5 1   
     8     4    12 1   
     9     4    47 1   
    10     5     6 1   
    11     5    48 1   
    12     5    49 1   
    13     6     7 ar  
    14     6     8 ar  
    15     7     9 ar  
    16     7    50 1   
    17     8    10 ar  
    18     8    51 1   
    19     9    11 ar  
    20     9    52 1   
    21    10    11 ar  
    22    10    53 1   
    23    11    54 1   
    24    12    13 1   
    25    12    14 1   
    26    12    55 1   
    27    13    56 1   
    28    14    15 1   
    29    14    57 1   
    30    14    58 1   
    31    15    16 1   
    32    15    59 1   
    33    15    89 1   
    34    16    17 1   
    35    16    60 1   
    36    16    61 1   
    37    17    18 ar  
    38    17    22 ar  
    39    18    19 ar  
    40    18    62 1   
    41    19    20 ar  
    42    19    63 1   
    43    20    21 ar  
    44    20    64 1   
    45    21    22 ar  
    46    21    23 1   
    47    22    65 1   
    48    23    24 1   
    49    23    25 1   
    50    24    66 1   
    51    24    67 1   
    52    24    68 1   
    53    25    69 1   
    54    25    70 1   
    55    25    71 1   
    56    26    27 1   
    57    26    31 1   
    58    26    39 1   
    59    27    28 1   
    60    27    72 1   
    61    28    29 2   
    62    28    30 1   
    63    30    31 1   
    64    30    32 1   
    65    31    73 1   
    66    31    74 1   
    67    32    33 1   
    68    32    75 1   
    69    32    76 1   
    70    33    34 ar  
    71    33    35 ar  
    72    34    37 ar  
    73    34    77 1   
    74    35    36 ar  
    75    35    78 1   
    76    36    38 ar  
    77    36    79 1   
    78    37    38 ar  
    79    37    80 1   
    80    38    81 1   
    81    39    44 1   
    82    39    82 1   
    83    39    83 1   
    84    40    41 ar  
    85    40    45 ar  
    86    40    87 1   
    87    41    42 ar  
    88    41    90 1   
    89    42    43 ar  
    90    42    84 1   
    91    43    44 ar  
    92    43    85 1   
    93    44    45 ar  
    94    45    86 1   
@<TRIPOS>SUBSTRUCTURE
     1 009         1 TEMP              0 ****  ****    0 ROOT
