@<TRIPOS>MOLECULE
009
   90    94     1     0     0
SMALL
bcc


@<TRIPOS>ATOM
      1 C            0.6920     1.5360    -1.7810 c          1 009       0.535100
      2 O            0.7300     1.8850    -2.9460 o          1 009      -0.370100
      3 N            1.8160     2.0580    -0.9040 ny         1 009      -0.679800
      4 CA           2.9590     1.0870    -0.7060 c3         1 009       0.110500
      5 CB           4.2880     1.6850    -1.2040 c3         1 009      -0.045100
      6 CG           4.2180     2.1250    -2.6200 ca         1 009      -0.168300
      7 CD1          4.1010     3.4880    -2.9250 ca         1 009      -0.130000
      8 CD2          4.3290     1.1920    -3.6580 ca         1 009      -0.130000
      9 CE1          4.0850     3.9090    -4.2530 ca         1 009      -0.106500
     10 CE2          4.3120     1.6170    -4.9860 ca         1 009      -0.106500
     11 CZ           4.1880     2.9740    -5.2860 ca         1 009      -0.086000
     12 C1           3.1000     0.6320     0.7740 c3         1 009       0.109100
     13 OG           4.2050     1.2240     1.4260 oh         1 009      -0.583800
     14 C2           3.3900    -0.8860     0.8080 c3         1 009       0.111800
     15 N2           3.3810    -1.4220     2.1960 ny         1 009      -0.767000
     16 C20          3.8520    -2.8530     2.2540 c3         1 009       0.179100
     17 C21          5.3240    -2.9570     2.0470 ca         1 009      -0.141300
     18 C22          5.8250    -3.3050     0.7930 ca         1 009      -0.175000
     19 C23          7.2050    -3.4460     0.6340 ca         1 009      -0.075000
     20 C24          8.0720    -3.2330     1.6930 ca         1 009      -0.156000
     21 C25          7.5820    -2.8650     2.9800 ca         1 009       0.211600
     22 C26          6.1760    -2.7370     3.1310 ca         1 009      -0.199000
     23 N27          8.4450    -2.5860     4.0310 nh         1 009      -0.663000
     24 C28          9.8540    -2.8380     3.8700 c3         1 009       0.188100
     25 C29          7.9210    -2.5280     5.3700 c3         1 009       0.188100
     26 C30         -0.4180     0.6960    -1.1160 c3         1 009       0.010400
     27 N31          0.1920    -0.3650    -0.3070 ns         1 009      -0.535900
     28 C32         -0.0460    -0.0470     1.0870 c          1 009       0.759500
     29 O33          0.4590    -0.7200     2.0090 o          1 009      -0.661500
     30 N34         -0.6960     1.1940     1.2180 n          1 009      -0.459800
     31 C35         -1.1770     1.6270    -0.0880 c3         1 009       0.039000
     32 C36         -1.4230     1.5580     2.4230 c3         1 009       0.136300
     33 C41         -1.1790     2.9790     2.8340 ca         1 009      -0.139300
     34 C42         -0.3280     3.2600     3.9070 ca         1 009      -0.123000
     35 C43         -1.8490     4.0230     2.1870 ca         1 009      -0.123000
     36 C44         -1.6730     5.3380     2.6130 ca         1 009      -0.121000
     37 C45         -0.1550     4.5770     4.3330 ca         1 009      -0.121000
     38 C46         -0.8250     5.6160     3.6870 ca         1 009      -0.098000
     39 C51         -1.3530     0.2190    -2.2480 c3         1 009      -0.034100
     40 C52         -4.5790    -1.3390    -1.0280 ca         1 009      -0.111500
     41 C53         -4.2530    -2.6960    -1.0420 ca         1 009      -0.092000
     42 C54         -2.9790    -3.1000    -1.4460 ca         1 009      -0.111500
     43 C55         -2.0310    -2.1510    -1.8240 ca         1 009      -0.130500
     44 C56         -2.3480    -0.7860    -1.7930 ca         1 009      -0.144300
     45 C57         -3.6320    -0.3870    -1.4050 ca         1 009      -0.130500
     46 HN           2.2060     2.8990    -1.3720 hn         1 009       0.465800
     47 HA           2.7210     0.1850    -1.3480 hx         1 009       0.119700
     48 HB           4.5990     2.5410    -0.5460 hc         1 009       0.091200
     49 HBA          5.0660     0.8800    -1.0800 hc         1 009       0.091200
     50 HD1          4.0670     4.2370    -2.1190 ha         1 009       0.128500
     51 HD2          4.4530     0.1230    -3.4280 ha         1 009       0.128500
     52 HE1          4.0060     4.9830    -4.4890 ha         1 009       0.160500
     53 HE2          4.4100     0.8800    -5.8000 ha         1 009       0.160500
     54 HZ           4.1840     3.3100    -6.3360 ha         1 009       0.166000
     55 H1           2.1600     0.8520     1.3610 h1         1 009       0.071700
     56 HOG          4.0090     2.1580     1.5850 ho         1 009       0.439000
     57 H2           4.4130    -1.0850     0.3660 hx         1 009       0.124200
     58 H2A          2.6050    -1.4360     0.2170 hx         1 009       0.124200
     59 HN2          2.4250    -1.3610     2.5770 hn         1 009       0.468800
     60 H20          3.5650    -3.2410     3.2760 hx         1 009       0.109200
     61 H20A         3.2870    -3.4340     1.4710 hx         1 009       0.109200
     62 H22          5.1510    -3.5050    -0.0510 ha         1 009       0.128000
     63 H23          7.6120    -3.7430    -0.3470 ha         1 009       0.156000
     64 H24          9.1540    -3.3680     1.5270 ha         1 009       0.163000
     65 H26          5.7440    -2.4900     4.1120 ha         1 009       0.135000
     66 H28         10.0600    -3.9230     3.6590 h1         1 009       0.052533
     67 H28A        10.4020    -2.5420     4.8030 h1         1 009       0.052533
     68 H28B        10.2480    -2.2190     3.0190 h1         1 009       0.052533
     69 H29          7.2720    -1.6170     5.4770 h1         1 009       0.052533
     70 H29A         8.7600    -2.4500     6.1110 h1         1 009       0.052533
     71 H29B         7.3100    -3.4390     5.6160 h1         1 009       0.052533
     72 HN31        -0.0900    -1.2940    -0.5660 hn         1 009       0.340500
     73 H35         -2.2890     1.4800    -0.1990 h1         1 009       0.096200
     74 H35A        -0.9450     2.7140    -0.2380 h1         1 009       0.096200
     75 H36         -1.0950     0.8560     3.2450 h1         1 009       0.084700
     76 H36A        -2.5300     1.4070     2.2500 h1         1 009       0.084700
     77 H42          0.1830     2.4420     4.4380 ha         1 009       0.130000
     78 H43         -2.5390     3.8030     1.3580 ha         1 009       0.130000
     79 H44         -2.2160     6.1560     2.1140 ha         1 009       0.154000
     80 H45          0.4980     4.7950     5.1930 ha         1 009       0.154000
     81 H46         -0.6980     6.6540     4.0340 ha         1 009       0.159000
     82 H51         -1.8720     1.1260    -2.6630 hc         1 009       0.091700
     83 H51A        -0.7280    -0.2150    -3.0760 hc         1 009       0.091700
     84 H54         -2.7290    -4.1720    -1.4840 ha         1 009       0.157500
     85 H55         -1.0480    -2.4830    -2.1910 ha         1 009       0.130000
     86 H57         -3.9150     0.6770    -1.4280 ha         1 009       0.130000
     87 H52         -5.5910    -1.0190    -0.7330 ha         1 009       0.157500
     88 H21          1.4250     2.3350     0.0010 hn         1 009       0.465800
     89 H231         4.0120    -0.8440     2.7700 hn         1 009       0.468800
     90 H53         -5.0040    -3.4480    -0.7520 ha         1 009       0.163000
@<TRIPOS>BOND
     1     1     2 2   
     2     1     3 1   
     3     1    26 1   
     4     3     4 1   
     5     3    46 1   
     6     3    88 1   
     7     4     5 1   
     8     4    12 1   
     9     4    47 1   
    10     5     6 1   
    11     5    48 1   
    12     5    49 1   
    13     6     7 ar  
    14     6     8 ar  
    15     7     9 ar  
    16     7    50 1   
    17     8    10 ar  
    18     8    51 1   
    19     9    11 ar  
    20     9    52 1   
    21    10    11 ar  
    22    10    53 1   
    23    11    54 1   
    24    12    13 1   
    25    12    14 1   
    26    12    55 1   
    27    13    56 1   
    28    14    15 1   
    29    14    57 1   
    30    14    58 1   
    31    15    16 1   
    32    15    59 1   
    33    15    89 1   
    34    16    17 1   
    35    16    60 1   
    36    16    61 1   
    37    17    18 ar  
    38    17    22 ar  
    39    18    19 ar  
    40    18    62 1   
    41    19    20 ar  
    42    19    63 1   
    43    20    21 ar  
    44    20    64 1   
    45    21    22 ar  
    46    21    23 1   
    47    22    65 1   
    48    23    24 1   
    49    23    25 1   
    50    24    66 1   
    51    24    67 1   
    52    24    68 1   
    53    25    69 1   
    54    25    70 1   
    55    25    71 1   
    56    26    27 1   
    57    26    31 1   
    58    26    39 1   
    59    27    28 1   
    60    27    72 1   
    61    28    29 2   
    62    28    30 1   
    63    30    31 1   
    64    30    32 1   
    65    31    73 1   
    66    31    74 1   
    67    32    33 1   
    68    32    75 1   
    69    32    76 1   
    70    33    34 ar  
    71    33    35 ar  
    72    34    37 ar  
    73    34    77 1   
    74    35    36 ar  
    75    35    78 1   
    76    36    38 ar  
    77    36    79 1   
    78    37    38 ar  
    79    37    80 1   
    80    38    81 1   
    81    39    44 1   
    82    39    82 1   
    83    39    83 1   
    84    40    41 ar  
    85    40    45 ar  
    86    40    87 1   
    87    41    42 ar  
    88    41    90 1   
    89    42    43 ar  
    90    42    84 1   
    91    43    44 ar  
    92    43    85 1   
    93    44    45 ar  
    94    45    86 1   
@<TRIPOS>SUBSTRUCTURE
     1 009         1 TEMP              0 ****  ****    0 ROOT
