@<TRIPOS>MOLECULE
009
   88    92     1     0     0
SMALL
bcc


@<TRIPOS>ATOM
      1 C            1.5070     0.0000     0.0000 c          1 009       0.573100
      2 O            2.1130     0.5910    -0.8670 o          1 009      -0.648100
      3 N            2.1800    -0.6530     0.9680 ns         1 009      -0.160900
      4 CA           3.6410    -0.7410     0.9130 c3         1 009      -0.005300
      5 CB           4.2330    -0.2470     2.2340 c3         1 009       0.010900
      6 CG           3.9590     1.2270     2.3870 ca         1 009      -0.096300
      7 CD1          2.7640     1.6560     2.9330 ca         1 009      -0.099000
      8 CD2          4.9070     2.1510     1.9870 ca         1 009      -0.099000
      9 CE1          2.5140     3.0070     3.0730 ca         1 009      -0.094500
     10 CE2          4.6570     3.5030     2.1270 ca         1 009      -0.094500
     11 CZ           3.4590     3.9320     2.6680 ca         1 009      -0.101000
     12 C1           4.0570    -2.1950     0.6790 c3         1 009       0.167100
     13 OG           3.6730    -2.9860     1.8060 oh         1 009      -0.601800
     14 C2           5.5740    -2.2690     0.4970 c3         1 009       0.088800
     15 N2           5.9590    -3.6450     0.1550 n7         1 009      -0.589200
     16 C20          7.4130    -3.7540    -0.0280 c3         1 009       0.203100
     17 C21          7.7690    -5.1770    -0.3760 ca         1 009      -0.053300
     18 C22          7.8050    -5.5750    -1.7010 ca         1 009      -0.160000
     19 C23          8.1320    -6.8790    -2.0250 ca         1 009      -0.049000
     20 C24          8.4250    -7.7880    -1.0270 ca         1 009      -0.188000
     21 C25          8.3900    -7.3910     0.3030 ca         1 009       0.080600
     22 C26          8.0650    -6.0790     0.6260 ca         1 009      -0.169000
     23 N27          8.6840    -8.3080     1.3160 nh         1 009      -0.398000
     24 C28          9.0300    -9.6900     0.9740 c3         1 009       0.213100
     25 C29          8.6460    -7.8880     2.7190 c3         1 009       0.213100
     26 C30          0.0000     0.0000     0.0000 c3         1 009      -0.088600
     27 N31         -0.5170     0.0000     1.3760 ns         1 009      -0.229900
     28 C32         -1.2380     1.1110     1.5760 c          1 009       0.633500
     29 O33         -1.7820     1.3660     2.6330 o          1 009      -0.739500
     30 N34         -1.3040     1.9150     0.5070 n          1 009      -0.189800
     31 C35         -0.5410     1.3140    -0.5970 c3         1 009       0.048000
     32 C36         -2.0230     3.1900     0.4470 c3         1 009       0.160300
     33 C41         -1.1290     4.2950     0.9490 ca         1 009      -0.133300
     34 C42         -0.4090     5.0620     0.0540 ca         1 009      -0.080500
     35 C43         -1.0350     4.5440     2.3060 ca         1 009      -0.080500
     36 C44         -0.2150     5.5570     2.7670 ca         1 009      -0.107500
     37 C45          0.4110     6.0750     0.5150 ca         1 009      -0.107500
     38 C46          0.5100     6.3200     1.8720 ca         1 009      -0.098000
     39 C51         -0.5360    -1.2050    -0.7750 c3         1 009       0.033900
     40 C52          1.4260    -4.2590     0.2610 ca         1 009      -0.088000
     41 C53          0.6000    -4.8050     1.2250 ca         1 009      -0.093000
     42 C54         -0.5950    -4.1850     1.5430 ca         1 009      -0.088000
     43 C55         -0.9620    -3.0190     0.8940 ca         1 009      -0.106500
     44 C56         -0.1350    -2.4750    -0.0690 ca         1 009      -0.117300
     45 C57          1.0590    -3.0950    -0.3870 ca         1 009      -0.106500
     46 HN           1.6850    -1.0370     1.7490 hn         1 009       0.189500
     47 HA           4.0090    -0.1260     0.1000 h1         1 009       0.079700
     48 HB           3.7790    -0.7860     3.0570 hc         1 009       0.032700
     49 HBA          5.3030    -0.4180     2.2380 hc         1 009       0.032700
     50 HD1          2.0230     0.9320     3.2510 ha         1 009       0.103500
     51 HD2          5.8460     1.8150     1.5630 ha         1 009       0.103500
     52 HE1          1.5760     3.3430     3.4990 ha         1 009       0.106500
     53 HE2          5.3980     4.2260     1.8110 ha         1 009       0.106500
     54 HZ           3.2620     4.9920     2.7770 ha         1 009       0.103000
     55 H1           3.5670    -2.5720    -0.2100 h1         1 009       0.032700
     56 HOG          4.3970    -3.5270     2.0720 ho         1 009       0.414000
     57 H2           6.0630    -1.9750     1.4180 h1         1 009       0.023700
     58 H2A          5.8750    -1.6010    -0.3010 h1         1 009       0.023700
     59 HN2          5.4950    -3.9220    -0.6870 hn         1 009       0.261800
     60 H20          7.7260    -3.0960    -0.8300 h1         1 009       0.010700
     61 H20A         7.9150    -3.4700     0.8890 h1         1 009       0.010700
     62 H22          7.5760    -4.8640    -2.4850 ha         1 009       0.103000
     63 H23          8.1600    -7.1870    -3.0630 ha         1 009       0.098000
     64 H24          8.6800    -8.8100    -1.2810 ha         1 009       0.115000
     65 H26          8.0370    -5.7660     1.6620 ha         1 009       0.119000
     66 H28          9.2230   -10.2490     1.8820 h1         1 009       0.004533
     67 H28A         8.2080   -10.1460     0.4370 h1         1 009       0.004533
     68 H28B         9.9160    -9.6970     0.3510 h1         1 009       0.004533
     69 H29          7.6540    -7.5260     2.9610 h1         1 009       0.004533
     70 H29A         8.8890    -8.7300     3.3550 h1         1 009       0.004533
     71 H29B         9.3680    -7.0960     2.8780 h1         1 009       0.004533
     72 HN31        -0.3560    -0.7170     2.0560 hn         1 009       0.219500
     73 H35          0.3140     1.9550    -0.7760 h1         1 009       0.052700
     74 H35A        -1.2560     1.0420    -1.3640 h1         1 009       0.052700
     75 H36         -2.3090     3.3950    -0.5770 h1         1 009       0.029200
     76 H36A        -2.9100     3.1340     1.0660 h1         1 009       0.029200
     77 H42         -0.4860     4.8690    -1.0090 ha         1 009       0.116500
     78 H43         -1.6040     3.9460     3.0080 ha         1 009       0.116500
     79 H44         -0.1400     5.7510     3.8310 ha         1 009       0.103500
     80 H45          0.9780     6.6740    -0.1870 ha         1 009       0.103500
     81 H46          1.1530     7.1140     2.2340 ha         1 009       0.100000
     82 H51         -1.6160    -1.1480    -0.8300 hc         1 009       0.036200
     83 H51A        -0.1230    -1.2030    -1.7770 hc         1 009       0.036200
     84 H53          0.8880    -5.7170     1.7320 ha         1 009       0.104000
     85 H54         -1.2430    -4.6120     2.2980 ha         1 009       0.106500
     86 H55         -1.8980    -2.5330     1.1430 ha         1 009       0.112500
     87 H57          1.7080    -2.6680    -1.1420 ha         1 009       0.112500
     88 H52          2.3620    -4.7450     0.0130 ha         1 009       0.106500
@<TRIPOS>BOND
     1     1     2 2   
     2     1     3 1   
     3     1    26 1   
     4     3     4 1   
     5     3    46 1   
     6     4     5 1   
     7     4    12 1   
     8     4    47 1   
     9     5     6 1   
    10     5    48 1   
    11     5    49 1   
    12     6     7 ar  
    13     6     8 ar  
    14     7     9 ar  
    15     7    50 1   
    16     8    10 ar  
    17     8    51 1   
    18     9    11 ar  
    19     9    52 1   
    20    10    11 ar  
    21    10    53 1   
    22    11    54 1   
    23    12    13 1   
    24    12    14 1   
    25    12    55 1   
    26    13    56 1   
    27    14    15 1   
    28    14    57 1   
    29    14    58 1   
    30    15    16 1   
    31    15    59 1   
    32    16    17 1   
    33    16    60 1   
    34    16    61 1   
    35    17    18 ar  
    36    17    22 ar  
    37    18    19 ar  
    38    18    62 1   
    39    19    20 ar  
    40    19    63 1   
    41    20    21 ar  
    42    20    64 1   
    43    21    22 ar  
    44    21    23 1   
    45    22    65 1   
    46    23    24 1   
    47    23    25 1   
    48    24    66 1   
    49    24    67 1   
    50    24    68 1   
    51    25    69 1   
    52    25    70 1   
    53    25    71 1   
    54    26    27 1   
    55    26    31 1   
    56    26    39 1   
    57    27    28 1   
    58    27    72 1   
    59    28    29 2   
    60    28    30 1   
    61    30    31 1   
    62    30    32 1   
    63    31    73 1   
    64    31    74 1   
    65    32    33 1   
    66    32    75 1   
    67    32    76 1   
    68    33    34 ar  
    69    33    35 ar  
    70    34    37 ar  
    71    34    77 1   
    72    35    36 ar  
    73    35    78 1   
    74    36    38 ar  
    75    36    79 1   
    76    37    38 ar  
    77    37    80 1   
    78    38    81 1   
    79    39    44 1   
    80    39    82 1   
    81    39    83 1   
    82    40    41 ar  
    83    40    45 ar  
    84    40    88 1   
    85    41    42 ar  
    86    41    84 1   
    87    42    43 ar  
    88    42    85 1   
    89    43    44 ar  
    90    43    86 1   
    91    44    45 ar  
    92    45    87 1   
@<TRIPOS>SUBSTRUCTURE
     1 009         1 TEMP              0 ****  ****    0 ROOT
