@<TRIPOS>MOLECULE
00A
   48    51     1     0     0
SMALL
bcc


@<TRIPOS>ATOM
      1 O2P          0.0000     0.0000     0.0000 o          1 00A      -0.634500
      2 P            1.6100     0.0000     0.0000 p5         1 00A       0.918800
      3 O1P          2.1030     0.0000     1.3960 o          1 00A      -0.634500
      4 O3P          2.1460     1.3150    -0.7590 os         1 00A      -0.459500
      5 CC           1.8720     2.5050    -0.1900 c          1 00A       0.767700
      6 C1C          2.3320     3.7530    -0.8290 ca         1 00A      -0.122600
      7 C2C          2.0500     4.9880    -0.2410 ca         1 00A      -0.044000
      8 C3C          2.4830     6.1500    -0.8430 ca         1 00A      -0.130000
      9 C4C          3.1970     6.0950    -2.0290 ca         1 00A      -0.020600
     10 Cl4A         3.7390     7.5630    -2.7810 cl         1 00A      -0.069400
     11 C5C          3.4800     4.8730    -2.6170 ca         1 00A      -0.130000
     12 C6C          3.0590     3.7040    -2.0210 ca         1 00A      -0.044000
     13 O2           1.2450     2.5500     0.8500 o          1 00A      -0.556000
     14 O5'          2.1470    -1.3140    -0.7590 os         1 00A      -0.504200
     15 C5'          1.9290    -2.6390    -0.2690 c3         1 00A       0.317400
     16 C4'          2.5670    -3.6480    -1.2270 c3         1 00A       0.148100
     17 C3'          2.2710    -5.0910    -0.7640 c3         1 00A       0.128100
     18 O3'          1.1700    -5.6350    -1.4970 oh         1 00A      -0.554800
     19 C2'          3.5700    -5.8620    -1.0810 c3         1 00A       0.118100
     20 O2'          3.3150    -6.9100    -2.0190 oh         1 00A      -0.547800
     21 C1'          4.5000    -4.7940    -1.6990 c3         1 00A       0.138800
     22 O4'          4.0060    -3.5340    -1.1890 os         1 00A      -0.376600
     23 N9           5.8830    -5.0120    -1.2690 na         1 00A       0.218000
     24 C4           6.7920    -5.8560    -1.8560 ca         1 00A       0.253800
     25 C5           7.9750    -5.7330    -1.1070 ca         1 00A      -0.223200
     26 N7           7.7300    -4.8380    -0.1200 nc         1 00A      -0.518100
     27 C8           6.5050    -4.4090    -0.2170 cd         1 00A       0.276700
     28 C6           9.0870    -6.4990    -1.4930 ca         1 00A       0.583200
     29 N6          10.2790    -6.4210    -0.7930 nv         1 00A      -0.529500
     30 N1           8.9700    -7.3010    -2.5460 nb         1 00A      -0.732000
     31 C2           7.8370    -7.3820    -3.2200 ca         1 00A       0.658900
     32 N3           6.7690    -6.6840    -2.8940 nb         1 00A      -0.646000
     33 H2C          1.4920     5.0330     0.6860 ha         1 00A       0.128000
     34 H3C          2.2640     7.1090    -0.3880 ha         1 00A       0.107000
     35 H5C          4.0410     4.8360    -3.5430 ha         1 00A       0.107000
     36 H6C          3.2810     2.7490    -2.4820 ha         1 00A       0.128000
     37 H5'          2.3760    -2.7390     0.7120 h1         1 00A      -0.006800
     38 H5'A         0.8640    -2.8280    -0.2020 h1         1 00A      -0.006800
     39 H4'          2.2060    -3.4970    -2.2370 h1         1 00A       0.044700
     40 H3'          2.0710    -5.1120     0.3010 h1         1 00A       0.017700
     41 HO3'         0.5600    -6.0330    -0.8980 ho         1 00A       0.382000
     42 H2'          4.0050    -6.2580    -0.1710 h1         1 00A       0.010700
     43 HO2'         3.2100    -7.7260    -1.5580 ho         1 00A       0.384000
     44 H1'          4.4270    -4.8140    -2.7790 h2         1 00A       0.064700
     45 H8           6.0490    -3.6790     0.4400 h5         1 00A       0.053800
     46 HN6         10.5830    -5.5440    -0.4190 hn         1 00A       0.272800
     47 HN6A        10.8480    -7.2370    -0.6830 hn         1 00A       0.272800
     48 H2           7.7840    -8.0480    -4.0730 h5         1 00A      -0.008900
@<TRIPOS>BOND
     1     1     2 1   
     2     2     3 1   
     3     2     4 1   
     4     2    14 1   
     5     4     5 1   
     6     5     6 1   
     7     5    13 2   
     8     6     7 ar  
     9     6    12 ar  
    10     7     8 ar  
    11     7    33 1   
    12     8     9 ar  
    13     8    34 1   
    14     9    10 1   
    15     9    11 ar  
    16    11    12 ar  
    17    11    35 1   
    18    12    36 1   
    19    14    15 1   
    20    15    16 1   
    21    15    37 1   
    22    15    38 1   
    23    16    17 1   
    24    16    22 1   
    25    16    39 1   
    26    17    18 1   
    27    17    19 1   
    28    17    40 1   
    29    18    41 1   
    30    19    20 1   
    31    19    21 1   
    32    19    42 1   
    33    20    43 1   
    34    21    22 1   
    35    21    23 1   
    36    21    44 1   
    37    23    24 1   
    38    23    27 1   
    39    24    25 ar  
    40    24    32 ar  
    41    25    26 1   
    42    25    28 ar  
    43    26    27 2   
    44    27    45 1   
    45    28    29 1   
    46    28    30 ar  
    47    29    46 1   
    48    29    47 1   
    49    30    31 ar  
    50    31    32 ar  
    51    31    48 1   
@<TRIPOS>SUBSTRUCTURE
     1 00A         1 TEMP              0 ****  ****    0 ROOT
