@<TRIPOS>MOLECULE
00A
   48    51     1     0     0
SMALL
bcc


@<TRIPOS>ATOM
      1 O2P          0.1820     0.3490    -1.8560 o          1 00A      -0.800000
      2 P            1.5790     0.5260    -1.4580 p5         1 00A       1.470800
      3 O1P          2.1340     1.2430    -0.3020 o          1 00A      -0.800000
      4 O3P          2.3560     1.2020    -2.7950 os         1 00A      -0.589500
      5 CC           3.6350     1.3710    -3.0990 c          1 00A       0.754700
      6 C1C          4.3010     2.6450    -2.7280 ca         1 00A      -0.145600
      7 C2C          3.9710     3.3280    -1.5530 ca         1 00A      -0.075000
      8 C3C          4.6190     4.5220    -1.2360 ca         1 00A      -0.152000
      9 C4C          5.5930     5.0290    -2.1000 ca         1 00A       0.032400
     10 Cl4A         6.3820     6.4930    -1.7190 cl         1 00A      -0.127400
     11 C5C          5.9330     4.3500    -3.2750 ca         1 00A      -0.152000
     12 C6C          5.2870     3.1560    -3.5820 ca         1 00A      -0.075000
     13 O2           4.1880     0.4980    -3.7940 o          1 00A      -0.615000
     14 O5'          2.3380    -0.9260    -1.5410 os         1 00A      -0.588200
     15 C5'          1.9280    -1.7080    -2.6300 c3         1 00A       0.157400
     16 C4'          2.7960    -2.9650    -2.6320 c3         1 00A       0.092100
     17 C3'          4.2980    -2.6180    -2.6510 c3         1 00A       0.082100
     18 O3'          4.9270    -3.0360    -1.4540 oh         1 00A      -0.612800
     19 C2'          4.8960    -3.4110    -3.8270 c3         1 00A       0.121100
     20 O2'          5.6540    -4.5350    -3.4510 oh         1 00A      -0.584800
     21 C1'          3.6430    -3.8870    -4.6410 c3         1 00A       0.213800
     22 O4'          2.5020    -3.7720    -3.7810 os         1 00A      -0.414600
     23 N9           3.4450    -3.1550    -5.8700 na         1 00A      -0.277000
     24 C4           3.0830    -3.7200    -7.1050 ca         1 00A       0.456800
     25 C5           2.8690    -2.5860    -8.0000 ca         1 00A      -0.215200
     26 N7           3.0710    -1.3830    -7.3040 nc         1 00A      -0.560100
     27 C8           3.3910    -1.7480    -6.0550 cd         1 00A       0.434700
     28 C6           2.5040    -2.8750    -9.3530 ca         1 00A       0.726200
     29 N6           2.3690    -1.8450   -10.2690 nv         1 00A      -0.939500
     30 N1           2.3510    -4.1850    -9.7350 nb         1 00A      -0.797000
     31 C2           2.5910    -5.1420    -8.7970 ca         1 00A       0.665900
     32 N3           2.9530    -5.0220    -7.4990 nb         1 00A      -0.723000
     33 H2C          3.2040     2.9010    -0.8690 ha         1 00A       0.185000
     34 H3C          4.3610     5.0540    -0.3090 ha         1 00A       0.141000
     35 H5C          6.7020     4.7520    -3.9490 ha         1 00A       0.141000
     36 H6C          5.5480     2.6000    -4.4970 ha         1 00A       0.185000
     37 H5'          2.0730    -1.1180    -3.5770 h1         1 00A       0.055200
     38 H5'A         0.8410    -1.9640    -2.5160 h1         1 00A       0.055200
     39 H4'          2.5480    -3.6040    -1.7410 h1         1 00A       0.073700
     40 H3'          4.4460    -1.5110    -2.8040 h1         1 00A       0.109700
     41 HO3'         4.5690    -2.4640    -0.7600 ho         1 00A       0.435000
     42 H2'          5.5910    -2.7790    -4.4410 h1         1 00A       0.100700
     43 HO2'         5.2920    -4.8770    -2.6220 ho         1 00A       0.421000
     44 H1'          3.7210    -4.9870    -4.8930 h2         1 00A       0.117700
     45 H8           3.6080    -1.0510    -5.2230 h5         1 00A       0.120800
     46 HN6          1.8990    -2.0380   -11.1210 hn         1 00A       0.425800
     47 HN6A         2.2490    -0.9370    -9.8860 hn         1 00A       0.425800
     48 H2           2.4620    -6.1840    -9.1580 h5         1 00A       0.040100
@<TRIPOS>BOND
     1     1     2 1   
     2     2     3 1   
     3     2     4 1   
     4     2    14 1   
     5     4     5 1   
     6     5     6 1   
     7     5    13 2   
     8     6     7 ar  
     9     6    12 ar  
    10     7     8 ar  
    11     7    33 1   
    12     8     9 ar  
    13     8    34 1   
    14     9    10 1   
    15     9    11 ar  
    16    11    12 ar  
    17    11    35 1   
    18    12    36 1   
    19    14    15 1   
    20    15    16 1   
    21    15    37 1   
    22    15    38 1   
    23    16    17 1   
    24    16    22 1   
    25    16    39 1   
    26    17    18 1   
    27    17    19 1   
    28    17    40 1   
    29    18    41 1   
    30    19    20 1   
    31    19    21 1   
    32    19    42 1   
    33    20    43 1   
    34    21    22 1   
    35    21    23 1   
    36    21    44 1   
    37    23    24 1   
    38    23    27 1   
    39    24    25 ar  
    40    24    32 ar  
    41    25    26 1   
    42    25    28 ar  
    43    26    27 2   
    44    27    45 1   
    45    28    29 1   
    46    28    30 ar  
    47    29    46 1   
    48    29    47 1   
    49    30    31 ar  
    50    31    32 ar  
    51    31    48 1   
@<TRIPOS>SUBSTRUCTURE
     1 00A         1 TEMP              0 ****  ****    0 ROOT
