@<TRIPOS>MOLECULE
00D
   23    22     1     0     0
SMALL
bcc


@<TRIPOS>ATOM
      1 N           -0.0510    -0.2530     0.0750 nz         1 00D      -0.845600
      2 CA           1.4320     0.0230     0.0020 c3         1 00D       0.131500
      3 CB1          2.0700    -0.0210     1.4160 c3         1 00D      -0.069000
      4 CB2          2.0900    -0.9190    -0.9940 c3         1 00D      -0.138100
      5 CD1          1.5090     1.1190     2.2570 c3         1 00D      -0.110433
      6 CD2          1.8090    -1.3440     2.1160 c3         1 00D      -0.110433
      7 CD3          3.5730     0.1810     1.2590 c3         1 00D      -0.110433
      8 HN          -0.4660    -0.1800    -0.8570 hn         1 00D       0.458467
      9 HNA         -0.4950     0.4220     0.7050 hn         1 00D       0.458467
     10 HA           1.5260     1.0850    -0.3860 hx         1 00D       0.107700
     11 HB2          2.1250    -1.9690    -0.6160 hc         1 00D       0.081367
     12 HB2A         3.1420    -0.5730    -1.1670 hc         1 00D       0.081367
     13 HB2B         1.5650    -0.9040    -1.9820 hc         1 00D       0.081367
     14 HD1          0.4390     0.9490     2.5290 hc         1 00D       0.058367
     15 HD1A         1.6020     2.0940     1.7200 hc         1 00D       0.058367
     16 HD1B         2.0850     1.1950     3.2130 hc         1 00D       0.058367
     17 HD2          2.0700    -2.2100     1.4620 hc         1 00D       0.058367
     18 HD2A         2.4460    -1.4060     3.0350 hc         1 00D       0.058367
     19 HD2B         0.7450    -1.4370     2.4430 hc         1 00D       0.058367
     20 HD3          3.7890     1.0680     0.6170 hc         1 00D       0.058367
     21 HD3A         4.0340     0.3520     2.2630 hc         1 00D       0.058367
     22 HD3B         4.0490    -0.7240     0.8100 hc         1 00D       0.058367
     23 HN3         -0.2040    -1.1990     0.4390 hn         1 00D       0.458467
@<TRIPOS>BOND
     1     1     2 1   
     2     1     8 1   
     3     1     9 1   
     4     1    23 1   
     5     2     3 1   
     6     2     4 1   
     7     2    10 1   
     8     3     5 1   
     9     3     6 1   
    10     3     7 1   
    11     4    11 1   
    12     4    12 1   
    13     4    13 1   
    14     5    14 1   
    15     5    15 1   
    16     5    16 1   
    17     6    17 1   
    18     6    18 1   
    19     6    19 1   
    20     7    20 1   
    21     7    21 1   
    22     7    22 1   
@<TRIPOS>SUBSTRUCTURE
     1 00D         1 TEMP              0 ****  ****    0 ROOT
