@<TRIPOS>MOLECULE
molecule
   23    22     1     0     0
SMALL
bcc


@<TRIPOS>ATOM
      1 N            0.0000     0.0000     0.0000 nz         1 00D      -0.813600
      2 CA           1.4690     0.0000     0.0000 c3         1 00D       0.109500
      3 CB1          1.9790     0.0000     1.4430 c3         1 00D      -0.100000
      4 CB2          1.9790    -1.2490    -0.7210 c3         1 00D      -0.123100
      5 CD1          3.5090     0.0000     1.4430 c3         1 00D      -0.095100
      6 CD2          1.4690     1.2490     2.1640 c3         1 00D      -0.095100
      7 CD3          1.4690    -1.2490     2.1650 c3         1 00D      -0.095100
      8 HN          -0.3340    -0.8910    -0.3100 hn         1 00D       0.455467
      9 HNA         -0.3340     0.7140    -0.6170 hn         1 00D       0.455467
     10 HA           1.8310     0.8840    -0.5110 hx         1 00D       0.113700
     11 HB2          1.6370    -1.2370    -1.7490 hc         1 00D       0.077367
     12 HB2A         3.0620    -1.2610    -0.7010 hc         1 00D       0.077367
     13 HB2B         1.5990    -2.1330    -0.2240 hc         1 00D       0.077367
     14 HD1          3.8710    -0.9870     1.1820 hc         1 00D       0.055478
     15 HD1A         3.8700     0.7210     0.7190 hc         1 00D       0.055478
     16 HD1B         3.8700     0.2680     2.4290 hc         1 00D       0.055478
     17 HD2          1.5940     2.1120     1.5220 hc         1 00D       0.055478
     18 HD2A         2.0330     1.3930     3.0780 hc         1 00D       0.055478
     19 HD2B         0.4200     1.1250     2.4030 hc         1 00D       0.055478
     20 HD3          1.8010    -1.2320     3.1960 hc         1 00D       0.055478
     21 HD3A         1.8580    -2.1340     1.6750 hc         1 00D       0.055478
     22 HD3B         0.3860    -1.2670     2.1350 hc         1 00D       0.055478
     23 HN3         -0.3340     0.1760     0.9270 hn         1 00D       0.455467
@<TRIPOS>BOND
     1     1     2 1   
     2     1     8 1   
     3     1     9 1   
     4     3     2 1   
     5     2     4 1   
     6     2    10 1   
     7     6     3 1   
     8     5     3 1   
     9     3     7 1   
    10     4    11 1   
    11     4    12 1   
    12     4    13 1   
    13     5    14 1   
    14     5    15 1   
    15     5    16 1   
    16     6    17 1   
    17     6    18 1   
    18     6    19 1   
    19     7    20 1   
    20     7    21 1   
    21     7    22 1   
    22    23     1 1   
@<TRIPOS>SUBSTRUCTURE
     1 00D         1 TEMP              0 ****  ****    0 ROOT
