@<TRIPOS>MOLECULE
00G
   31    33     1     0     0
SMALL
bcc


@<TRIPOS>ATOM
      1 C17          0.0000     0.0000     0.0000 cc         1 00G      -0.324300
      2 C16          1.3490     0.0000     0.0000 cd         1 00G      -0.171500
      3 C15          1.7710     0.0000     1.3440 cd         1 00G      -0.171500
      4 C14          0.6640     0.0000     2.1150 cc         1 00G      -0.324300
      5 N13         -0.4260     0.0060     1.2960 na         1 00G       0.433900
      6 C12         -1.8240     0.0070     1.7340 c3         1 00G      -0.056700
      7 C11         -2.3070     1.4500     1.8910 c3         1 00G       0.185400
      8 O10         -3.6700     1.4510     2.3190 os         1 00G      -0.306900
      9 C3          -4.2570     2.6640     2.5070 ca         1 00G       0.116100
     10 C2          -3.5300     3.8290     2.2790 ca         1 00G      -0.184000
     11 C4          -5.5720     2.7350     2.9200 ca         1 00G      -0.089000
     12 C5          -6.1690     3.9830     3.1120 ca         1 00G      -0.064800
     13 C9          -7.5030     4.4180     3.5320 cc         1 00G      -0.171200
     14 C8          -7.4960     5.7600     3.5350 cd         1 00G      -0.260100
     15 N7          -6.2670     6.2210     3.1510 na         1 00G       0.350600
     16 C6          -5.4300     5.1570     2.8850 ca         1 00G      -0.257200
     17 C1          -4.1080     5.0650     2.4650 ca         1 00G      -0.057000
     18 H17         -0.6350     0.0010    -0.8770 h4         1 00G       0.143000
     19 H16          1.9910    -0.0020    -0.8730 ha         1 00G       0.123000
     20 H15          2.7960    -0.0020     1.6950 ha         1 00G       0.123000
     21 H14          0.6450     0.0020     3.1980 h4         1 00G       0.143000
     22 H12         -2.4340    -0.5000     0.9970 h1         1 00G       0.042200
     23 H12A        -1.9040    -0.5060     2.6850 h1         1 00G       0.042200
     24 H11         -1.6970     1.9580     2.6280 h1         1 00G       0.010700
     25 H11A        -2.2260     1.9640     0.9400 h1         1 00G       0.010700
     26 H2          -2.4990     3.7630     1.9510 ha         1 00G       0.118000
     27 H4          -6.1020     1.8320     3.2000 ha         1 00G       0.116000
     28 H9          -8.3370     3.7770     3.7920 ha         1 00G       0.130000
     29 H8          -8.3390     6.3860     3.8030 h4         1 00G       0.138000
     30 H1          -3.5330     5.9650     2.2830 ha         1 00G       0.098000
     31 HN7         -6.0120     7.1860     3.0750 hn         1 00G       0.113700
@<TRIPOS>BOND
     1     1     2 2   
     2     1     5 1   
     3     1    18 1   
     4     2     3 1   
     5     2    19 1   
     6     3     4 2   
     7     3    20 1   
     8     4     5 1   
     9     4    21 1   
    10     5     6 1   
    11     6     7 1   
    12     6    22 1   
    13     6    23 1   
    14     7     8 1   
    15     7    24 1   
    16     7    25 1   
    17     8     9 1   
    18     9    10 ar  
    19     9    11 ar  
    20    10    17 ar  
    21    10    26 1   
    22    11    12 ar  
    23    11    27 1   
    24    12    13 1   
    25    12    16 ar  
    26    13    14 2   
    27    13    28 1   
    28    14    15 1   
    29    14    29 1   
    30    15    16 1   
    31    15    31 1   
    32    16    17 ar  
    33    17    30 1   
@<TRIPOS>SUBSTRUCTURE
     1 00G         1 TEMP              0 ****  ****    0 ROOT
