@<TRIPOS>MOLECULE
00G
   31    33     1     0     0
SMALL
bcc


@<TRIPOS>ATOM
      1 C17          0.5580    -1.1510     0.9820 cc         1 00G      -0.158800
      2 C16          1.7900    -0.5420     0.7150 cd         1 00G      -0.199000
      3 C15          1.5770     0.8780     0.7270 cd         1 00G      -0.199000
      4 C14          0.2220     1.0930     1.0030 cc         1 00G      -0.158800
      5 N13         -0.3980    -0.1470     1.1650 na         1 00G      -0.074100
      6 C12         -1.7820    -0.3560     1.4600 c3         1 00G       0.039300
      7 C11         -2.7590     0.1410     0.3830 c3         1 00G       0.108400
      8 O10         -2.8510     1.5560     0.5640 os         1 00G      -0.337900
      9 C3          -3.6970     2.2210    -0.3100 ca         1 00G       0.099100
     10 C2          -3.7220     3.6270    -0.1100 ca         1 00G      -0.133000
     11 C4          -4.4620     1.5980    -1.2900 ca         1 00G      -0.161000
     12 C5          -5.2750     2.4000    -2.0940 ca         1 00G      -0.061800
     13 C9          -6.1820     2.1230    -3.1830 cc         1 00G      -0.197200
     14 C8          -6.7140     3.3440    -3.5950 cd         1 00G      -0.101100
     15 N7          -6.1920     4.3810    -2.8200 na         1 00G      -0.190400
     16 C6          -5.3030     3.8310    -1.8910 ca         1 00G      -0.077200
     17 C1          -4.5210     4.4370    -0.8940 ca         1 00G      -0.112000
     18 H17          0.2970    -2.2050     1.0620 h4         1 00G       0.167500
     19 H16          2.7320    -1.0490     0.5330 ha         1 00G       0.149500
     20 H15          2.3280     1.6410     0.5540 ha         1 00G       0.149500
     21 H14         -0.3540     2.0160     1.0830 h4         1 00G       0.167500
     22 H12         -2.0300     0.1730     2.4260 h1         1 00G       0.068700
     23 H12A        -1.9590    -1.4610     1.5950 h1         1 00G       0.068700
     24 H11         -3.7650    -0.3250     0.5570 h1         1 00G       0.052200
     25 H11A        -2.4040    -0.0910    -0.6550 h1         1 00G       0.052200
     26 H2          -3.0920     4.0550     0.6830 ha         1 00G       0.147000
     27 H4          -4.4420     0.5120    -1.4480 ha         1 00G       0.139000
     28 H9          -6.4020     1.1440    -3.5970 ha         1 00G       0.157000
     29 H8          -7.4330     3.5540    -4.3890 h4         1 00G       0.164000
     30 H1          -4.5410     5.5240    -0.7410 ha         1 00G       0.135000
     31 HN7         -6.3950     5.3380    -2.9170 hn         1 00G       0.298700
@<TRIPOS>BOND
     1     1     2 2   
     2     1     5 1   
     3     1    18 1   
     4     2     3 1   
     5     2    19 1   
     6     3     4 2   
     7     3    20 1   
     8     4     5 1   
     9     4    21 1   
    10     5     6 1   
    11     6     7 1   
    12     6    22 1   
    13     6    23 1   
    14     7     8 1   
    15     7    24 1   
    16     7    25 1   
    17     8     9 1   
    18     9    10 ar  
    19     9    11 ar  
    20    10    17 ar  
    21    10    26 1   
    22    11    12 ar  
    23    11    27 1   
    24    12    13 1   
    25    12    16 ar  
    26    13    14 2   
    27    13    28 1   
    28    14    15 1   
    29    14    29 1   
    30    15    16 1   
    31    15    31 1   
    32    16    17 ar  
    33    17    30 1   
@<TRIPOS>SUBSTRUCTURE
     1 00G         1 TEMP              0 ****  ****    0 ROOT
