@<TRIPOS>MOLECULE
00S
   24    24     1     0     0
SMALL
bcc


@<TRIPOS>ATOM
      1 N23          0.0000     0.0000     0.0000 nz         1 00S       0.085400
      2 C16          1.4690     0.0000     0.0000 c3         1 00S       0.029100
      3 C17          1.9720     0.0000     1.4210 ca         1 00S      -0.162300
      4 C22          2.1950     1.1990     2.0730 ca         1 00S      -0.032000
      5 C21          2.6550     1.2050     3.3740 ca         1 00S      -0.060500
      6 C24          2.8940    -0.0020     4.0310 ca         1 00S      -0.164900
      7 C27          3.3870    -0.0020     5.4270 ce         1 00S       0.177800
      8 N35          3.5980     1.1250     6.0440 n2         1 00S      -0.415100
      9 N34          3.6220    -1.1960     6.0750 nz         1 00S       0.191400
     10 C19          2.6660    -1.2070     3.3690 ca         1 00S      -0.060500
     11 C18          2.2010    -1.2010     2.0700 ca         1 00S      -0.032000
     12 HN23        -0.3340    -0.8020     0.4970 hn         1 00S       0.229133
     13 H16          1.8300     0.8840    -0.5110 hx         1 00S       0.095200
     14 H16A         1.8300    -0.8840    -0.5110 hx         1 00S       0.095200
     15 H22          2.0100     2.1350     1.5610 ha         1 00S       0.131500
     16 H21          2.8300     2.1450     3.8830 ha         1 00S       0.120000
     17 HN35         3.4270     1.9930     5.5760 hn         1 00S       0.378400
     18 HN34         2.7730    -1.7240     6.1190 hn         1 00S       0.227800
     19 HN3A         3.9500    -1.0130     7.0030 hn         1 00S       0.227800
     20 H19          2.8480    -2.1470     3.8750 ha         1 00S       0.120000
     21 H18          2.0230    -2.1370     1.5540 ha         1 00S       0.131500
     22 H2          -0.3340     0.8310     0.4460 hn         1 00S       0.229133
     23 H233        -0.3340    -0.0290    -0.9430 hn         1 00S       0.229133
     24 H343         4.3160    -1.7150     5.5750 hn         1 00S       0.227800
@<TRIPOS>BOND
     1     1     2 1   
     2     1    12 1   
     3     1    22 1   
     4     1    23 1   
     5     2     3 1   
     6     2    13 1   
     7     2    14 1   
     8     3     4 ar  
     9     3    11 ar  
    10     4     5 ar  
    11     4    15 1   
    12     5     6 ar  
    13     5    16 1   
    14     6     7 1   
    15     6    10 ar  
    16     7     8 2   
    17     7     9 1   
    18     8    17 1   
    19     9    18 1   
    20     9    19 1   
    21     9    24 1   
    22    10    11 ar  
    23    10    20 1   
    24    11    21 1   
@<TRIPOS>SUBSTRUCTURE
     1 00S         1 TEMP              0 ****  ****    0 ROOT
