@<TRIPOS>MOLECULE
molecule
   24    24     1     0     0
SMALL
bcc


@<TRIPOS>ATOM
      1 N23          0.0000     0.0000     0.0000 nz         1 00S      -0.809600
      2 C16          1.4690     0.0000     0.0000 c3         1 00S       0.154100
      3 C17          1.9720     0.0000     1.4210 ca         1 00S      -0.145300
      4 C22          2.1950     1.1990     2.0730 ca         1 00S      -0.085000
      5 C21          2.6550     1.2050     3.3740 ca         1 00S      -0.076000
      6 C24          2.8940    -0.0020     4.0310 ca         1 00S      -0.137900
      7 C27          3.3870    -0.0020     5.4270 ce         1 00S       0.519800
      8 N35          3.5980     1.1250     6.0440 n2         1 00S      -0.642100
      9 N34          3.6220    -1.1960     6.0750 nz         1 00S      -0.801600
     10 C19          2.6660    -1.2070     3.3690 ca         1 00S      -0.076000
     11 C18          2.2010    -1.2010     2.0700 ca         1 00S      -0.085000
     12 HN23        -0.3340     0.8320     0.4450 hn         1 00S       0.463800
     13 H16          1.8300    -0.8840    -0.5110 hx         1 00S       0.128200
     14 H16A         1.8300     0.8840    -0.5110 hx         1 00S       0.128200
     15 H22          2.0100     2.1350     1.5610 ha         1 00S       0.166000
     16 H21          2.8300     2.1450     3.8830 ha         1 00S       0.165000
     17 HN35         3.9310     1.1260     6.9880 hn         1 00S       0.457400
     18 HN34         2.7730    -1.7240     6.1190 hn         1 00S       0.472800
     19 HN3A         3.9500    -1.0130     7.0020 hn         1 00S       0.472800
     20 H19          2.8480    -2.1470     3.8750 ha         1 00S       0.165000
     21 H18          2.0230    -2.1370     1.5540 ha         1 00S       0.166000
     22 H2          -0.3340    -0.0310    -0.9430 hn         1 00S       0.463800
     23 H233        -0.3340    -0.8010     0.4980 hn         1 00S       0.463800
     24 H343         4.3090    -1.7200     5.5690 hn         1 00S       0.472800
@<TRIPOS>BOND
     1     2     1 1   
     2     1    12 1   
     3     2     3 1   
     4     2    13 1   
     5     2    14 1   
     6     3    11 ar  
     7     3     4 ar  
     8     4     5 ar  
     9     4    15 1   
    10     5     6 ar  
    11     5    16 1   
    12    10     6 ar  
    13     6     7 1   
    14     7     8 2   
    15     7     9 1   
    16     8    17 1   
    17     9    18 1   
    18     9    19 1   
    19    11    10 ar  
    20    10    20 1   
    21    11    21 1   
    22     1    22 1   
    23    23     1 1   
    24    24     9 1   
@<TRIPOS>SUBSTRUCTURE
     1 00S         1 TEMP              0 ****  ****    0 ROOT
