@<TRIPOS>MOLECULE
00S
   24    24     1     0     0
SMALL
bcc


@<TRIPOS>ATOM
      1 N23          0.0990    -0.1180    -0.2000 nz         1 00S      -0.839600
      2 C16          1.5640    -0.0580     0.0940 c3         1 00S       0.153100
      3 C17          1.8720    -0.0040     1.5560 ca         1 00S      -0.134300
      4 C22          1.6270     1.1650     2.2850 ca         1 00S      -0.089500
      5 C21          2.0450     1.2670     3.6130 ca         1 00S      -0.076000
      6 C24          2.7120     0.1910     4.2120 ca         1 00S      -0.160900
      7 C27          3.2790     0.3710     5.5780 ce         1 00S       0.603800
      8 N35          4.1040     1.2900     5.8560 n2         1 00S      -0.645100
      9 N34          2.7400    -0.6690     6.5550 nz         1 00S      -0.882600
     10 C19          2.9430    -0.9880     3.4950 ca         1 00S      -0.076000
     11 C18          2.5150    -1.0860     2.1700 ca         1 00S      -0.089500
     12 HN23        -0.3100    -0.9790     0.1790 hn         1 00S       0.468800
     13 H16          2.0440    -0.9650    -0.3820 hx         1 00S       0.132200
     14 H16A         1.9760     0.8680    -0.4130 hx         1 00S       0.132200
     15 H22          1.1410     2.0340     1.8110 ha         1 00S       0.168000
     16 H21          1.8770     2.2070     4.1680 ha         1 00S       0.171500
     17 HN35         4.5110     1.4500     6.7530 hn         1 00S       0.486400
     18 HN34         1.7600    -0.4540     6.7670 hn         1 00S       0.466467
     19 HN3A         2.7870    -1.5970     6.1230 hn         1 00S       0.466467
     20 H19          3.4970    -1.8310     3.9390 ha         1 00S       0.171500
     21 H18          2.7230    -2.0120     1.6050 ha         1 00S       0.168000
     22 H2          -0.0500    -0.1000    -1.2170 hn         1 00S       0.468800
     23 H233        -0.3830     0.6840     0.2200 hn         1 00S       0.468800
     24 H343         3.2690    -0.6880     7.4340 hn         1 00S       0.466467
@<TRIPOS>BOND
     1     1     2 1   
     2     1    12 1   
     3     1    22 1   
     4     1    23 1   
     5     2     3 1   
     6     2    13 1   
     7     2    14 1   
     8     3     4 ar  
     9     3    11 ar  
    10     4     5 ar  
    11     4    15 1   
    12     5     6 ar  
    13     5    16 1   
    14     6     7 1   
    15     6    10 ar  
    16     7     8 2   
    17     7     9 1   
    18     8    17 1   
    19     9    18 1   
    20     9    19 1   
    21     9    24 1   
    22    10    11 ar  
    23    10    20 1   
    24    11    21 1   
@<TRIPOS>SUBSTRUCTURE
     1 00S         1 TEMP              0 ****  ****    0 ROOT
