@<TRIPOS>MOLECULE
00T
   24    24     1     0     0
SMALL
bcc


@<TRIPOS>ATOM
      1 N19          0.0000     0.0000     0.0000 nz         1 00T       0.066400
      2 C10          1.4690     0.0000     0.0000 c3         1 00T       0.042100
      3 C6           1.9710     0.0000     1.4210 ca         1 00T      -0.181300
      4 C5           2.0070    -1.1790     2.1410 ca         1 00T      -0.212300
      5 C32          1.5410    -2.4640     1.5060 c3         1 00T       0.045100
      6 N33          2.6060    -2.9990     0.6480 nz         1 00T       0.064400
      7 C4           2.4680    -1.1800     3.4450 ca         1 00T      -0.017000
      8 C3           2.8950    -0.0020     4.0270 ca         1 00T      -0.026000
      9 C2           2.8600     1.1790     3.3060 ca         1 00T      -0.025600
     10 Cl1          3.3960     2.6600     4.0390 cl         1 00T       0.150600
     11 C7           2.4030     1.1780     2.0010 ca         1 00T      -0.039000
     12 HN19        -0.3340    -0.6610    -0.6730 hn         1 00T       0.236800
     13 H10          1.8300    -0.8840    -0.5110 hx         1 00T       0.071700
     14 H10A         1.8300     0.8850    -0.5110 hx         1 00T       0.071700
     15 H32          1.3050    -3.1850     2.2800 hx         1 00T       0.070700
     16 H32A         0.6580    -2.2730     0.9090 hx         1 00T       0.070700
     17 HN33         2.2130    -3.3020    -0.2210 hn         1 00T       0.236133
     18 HN3A         3.2860    -2.2860     0.4760 hn         1 00T       0.236133
     19 H4           2.4960    -2.1040     4.0090 ha         1 00T       0.134000
     20 H3           3.2570    -0.0020     5.0480 ha         1 00T       0.157000
     21 H7           2.3760     2.1020     1.4360 ha         1 00T       0.140000
     22 H2          -0.3340    -0.2520     0.9090 hn         1 00T       0.236800
     23 H193        -0.3340     0.9140    -0.2360 hn         1 00T       0.236800
     24 H333         3.0400    -3.7780     1.1020 hn         1 00T       0.236133
@<TRIPOS>BOND
     1     1     2 1   
     2     1    12 1   
     3     1    22 1   
     4     1    23 1   
     5     2     3 1   
     6     2    13 1   
     7     2    14 1   
     8     3     4 ar  
     9     3    11 ar  
    10     4     5 1   
    11     4     7 ar  
    12     5     6 1   
    13     5    15 1   
    14     5    16 1   
    15     6    17 1   
    16     6    18 1   
    17     6    24 1   
    18     7     8 ar  
    19     7    19 1   
    20     8     9 ar  
    21     8    20 1   
    22     9    10 1   
    23     9    11 ar  
    24    11    21 1   
@<TRIPOS>SUBSTRUCTURE
     1 00T         1 TEMP              0 ****  ****    0 ROOT
