@<TRIPOS>MOLECULE
00T
   24    24     1     0     0
SMALL
bcc


@<TRIPOS>ATOM
      1 N19          1.0720    -1.0670    -0.6430 nz         1 00T      -0.841600
      2 C10          0.6520     0.1330     0.1500 c3         1 00T       0.161100
      3 C6           1.3070     0.1730     1.4970 ca         1 00T      -0.120300
      4 C5           2.1710     1.1920     1.9330 ca         1 00T      -0.152300
      5 C32          2.5200     2.4110     1.1390 c3         1 00T       0.165100
      6 N33          2.0660     3.6690     1.8160 nz         1 00T      -0.842600
      7 C4           2.7760     1.0740     3.1950 ca         1 00T      -0.103000
      8 C3           2.5000     0.0040     4.0400 ca         1 00T      -0.069000
      9 C2           1.5900    -0.9810     3.6300 ca         1 00T       0.062400
     10 Cl1          1.2080    -2.2630     4.6430 cl         1 00T       0.043600
     11 C7           1.0040    -0.8890     2.3610 ca         1 00T      -0.130000
     12 HN19         2.0760    -1.0300    -0.8530 hn         1 00T       0.473467
     13 H10          0.8820     1.0380    -0.4780 hx         1 00T       0.117200
     14 H10A        -0.4730     0.0710     0.2820 hx         1 00T       0.117200
     15 H32          3.6470     2.4780     1.0310 hx         1 00T       0.115700
     16 H32A         2.0690     2.4120     0.1080 hx         1 00T       0.115700
     17 HN33         1.0420     3.6960     1.8840 hn         1 00T       0.472467
     18 HN3A         2.4510     3.7180     2.7680 hn         1 00T       0.472467
     19 H4           3.5090     1.8290     3.5310 ha         1 00T       0.158000
     20 H3           2.9930    -0.0670     5.0290 ha         1 00T       0.203000
     21 H7           0.2730    -1.6610     2.0600 ha         1 00T       0.164000
     22 H2           0.5470    -1.1040    -1.5260 hn         1 00T       0.473467
     23 H193         0.8870    -1.9270    -0.1100 hn         1 00T       0.473467
     24 H333         2.3870     4.4880     1.2850 hn         1 00T       0.472467
@<TRIPOS>BOND
     1     1     2 1   
     2     1    12 1   
     3     1    22 1   
     4     1    23 1   
     5     2     3 1   
     6     2    13 1   
     7     2    14 1   
     8     3     4 ar  
     9     3    11 ar  
    10     4     5 1   
    11     4     7 ar  
    12     5     6 1   
    13     5    15 1   
    14     5    16 1   
    15     6    17 1   
    16     6    18 1   
    17     6    24 1   
    18     7     8 ar  
    19     7    19 1   
    20     8     9 ar  
    21     8    20 1   
    22     9    10 1   
    23     9    11 ar  
    24    11    21 1   
@<TRIPOS>SUBSTRUCTURE
     1 00T         1 TEMP              0 ****  ****    0 ROOT
