@<TRIPOS>MOLECULE
molecule
   24    24     1     0     0
SMALL
bcc


@<TRIPOS>ATOM
      1 N19          0.0000     0.0000     0.0000 nz         1 00T      -0.817600
      2 C10          1.4690     0.0000     0.0000 c3         1 00T       0.161100
      3 C6           1.9710     0.0000     1.4210 ca         1 00T      -0.173300
      4 C5           2.0070    -1.1790     2.1410 ca         1 00T      -0.196300
      5 C32          1.5410    -2.4640     1.5060 c3         1 00T       0.162100
      6 N33          2.6060    -2.9990     0.6480 nz         1 00T      -0.816600
      7 C4           2.4680    -1.1800     3.4450 ca         1 00T      -0.059000
      8 C3           2.8950    -0.0020     4.0270 ca         1 00T      -0.062000
      9 C2           2.8600     1.1790     3.3060 ca         1 00T       0.070400
     10 Cl1          3.3960     2.6600     4.0390 cl         1 00T       0.026600
     11 C7           2.4030     1.1780     2.0010 ca         1 00T      -0.074000
     12 HN19        -0.3340    -0.6610    -0.6730 hn         1 00T       0.468133
     13 H10          1.8300    -0.8840    -0.5110 hx         1 00T       0.105200
     14 H10A         1.8300     0.8850    -0.5110 hx         1 00T       0.105200
     15 H32          1.3050    -3.1850     2.2800 hx         1 00T       0.104200
     16 H32A         0.6580    -2.2730     0.9090 hx         1 00T       0.104200
     17 HN33         2.2130    -3.3020    -0.2210 hn         1 00T       0.467467
     18 HN3A         3.2860    -2.2860     0.4760 hn         1 00T       0.467467
     19 H4           2.4960    -2.1040     4.0090 ha         1 00T       0.173000
     20 H3           3.2570    -0.0020     5.0480 ha         1 00T       0.202000
     21 H7           2.3760     2.1020     1.4360 ha         1 00T       0.178000
     22 H2          -0.3340    -0.2520     0.9090 hn         1 00T       0.468133
     23 H193        -0.3340     0.9140    -0.2360 hn         1 00T       0.468133
     24 H333         3.0400    -3.7780     1.1020 hn         1 00T       0.467467
@<TRIPOS>BOND
     1     1     2 1
     2     2     3 1
     3     3     4 ar
     4     3    11 ar
     5     4     5 1
     6     4     7 ar
     7     5     6 1
     8     7     8 ar
     9     8     9 ar
    10     9    10 1
    11     9    11 ar
    12     1    12 1
    13     2    13 1
    14     2    14 1
    15     5    15 1
    16     5    16 1
    17     6    17 1
    18     6    18 1
    19     7    19 1
    20     8    20 1
    21    11    21 1
    22     1    22 1
    23    23     1 1
    24    24     6 1
@<TRIPOS>SUBSTRUCTURE
     1 00T         1 TEMP              0 ****  ****    0 ROOT
