@<TRIPOS>MOLECULE
00X
   23    24     1     0     0
SMALL
bcc


@<TRIPOS>ATOM
      1 N30         -0.1150    -0.2310     0.0350 nz         1 00X      -0.826600
      2 O30          1.2770    -1.9840    -1.3470 oh         1 00X      -0.636800
      3 C31          1.3680     0.0120     0.0370 c3         1 00X       0.183800
      4 C32          1.9030     0.0410     1.4360 ca         1 00X      -0.200300
      5 C33          1.6370     0.9740     2.4290 ca         1 00X      -0.090000
      6 C34          2.2700     0.8270     3.6680 ca         1 00X      -0.119000
      7 C35          2.1830    -1.1350    -0.6690 c3         1 00X       0.136100
      8 C36          2.8030    -1.0250     1.6570 ca         1 00X      -0.049300
      9 C37          3.4300    -1.1640     2.8860 ca         1 00X      -0.104000
     10 C38          3.1530    -0.2310     3.8930 ca         1 00X      -0.074000
     11 C39          2.9650    -1.8670     0.4400 c3         1 00X      -0.082100
     12 HN30        -0.3090    -1.1290     0.4910 hn         1 00X       0.462467
     13 HN3A        -0.5930     0.5190     0.5380 hn         1 00X       0.462467
     14 HO30         1.7970    -2.6710    -1.7870 ho         1 00X       0.458000
     15 H31          1.5360     0.9890    -0.5030 hx         1 00X       0.117700
     16 H33          0.9590     1.8220     2.2530 ha         1 00X       0.138000
     17 H34          2.0740     1.5580     4.4690 ha         1 00X       0.162000
     18 H35          2.8860    -0.6550    -1.4050 h1         1 00X       0.086700
     19 H37          4.1370    -1.9890     3.0690 ha         1 00X       0.163000
     20 H38          3.6450    -0.3310     4.8750 ha         1 00X       0.164000
     21 H39          2.5530    -2.8970     0.6030 hc         1 00X       0.092700
     22 H39A         4.0450    -1.9670     0.1570 hc         1 00X       0.092700
     23 H303        -0.4480    -0.2850    -0.9340 hn         1 00X       0.462467
@<TRIPOS>BOND
     1     1     3 1   
     2     1    12 1   
     3     1    13 1   
     4     1    23 1   
     5     2     7 1   
     6     2    14 1   
     7     3     4 1   
     8     3     7 1   
     9     3    15 1   
    10     4     5 ar  
    11     4     8 ar  
    12     5     6 ar  
    13     5    16 1   
    14     6    10 ar  
    15     6    17 1   
    16     7    11 1   
    17     7    18 1   
    18     8     9 ar  
    19     8    11 1   
    20     9    10 ar  
    21     9    19 1   
    22    10    20 1   
    23    11    21 1   
    24    11    22 1   
@<TRIPOS>SUBSTRUCTURE
     1 00X         1 TEMP              0 ****  ****    0 ROOT
