@<TRIPOS>MOLECULE
molecule
   23    24     1     0     0
SMALL
bcc


@<TRIPOS>ATOM
      1 N30          0.0000     0.0000     0.0000 nz         1 00X      -0.797600
      2 O30          1.0650    -2.3690    -0.4670 oh         1 00X      -0.620800
      3 C31          1.4690     0.0000     0.0000 c3         1 00X       0.170800
      4 C32          1.9940     0.0000     1.4210 ca         1 00X      -0.189300
      5 C33          1.5920     0.7320     2.5250 ca         1 00X      -0.104000
      6 C34          2.2290     0.5630     3.7390 ca         1 00X      -0.107000
      7 C35          2.0050    -1.3050    -0.6280 c3         1 00X       0.126100
      8 C36          3.0350    -0.9010     1.5340 ca         1 00X      -0.045300
      9 C37          3.6720    -1.0690     2.7510 ca         1 00X      -0.098000
     10 C38          3.2710    -0.3380     3.8520 ca         1 00X      -0.076000
     11 C39          3.2810    -1.5700     0.1980 c3         1 00X      -0.055100
     12 HN30        -0.3340    -0.2510    -0.9100 hn         1 00X       0.457467
     13 HN3A        -0.3340     0.9130     0.2370 hn         1 00X       0.457467
     14 HO30         1.1430    -2.9690    -1.1900 ho         1 00X       0.445000
     15 H31          1.8500     0.8580    -0.5390 hx         1 00X       0.122700
     16 H33          0.7760     1.4390     2.4370 ha         1 00X       0.122000
     17 H34          1.9130     1.1380     4.6020 ha         1 00X       0.159000
     18 H35          2.2500    -1.1540    -1.6720 h1         1 00X       0.073700
     19 H37          4.4890    -1.7760     2.8400 ha         1 00X       0.158000
     20 H38          3.7710    -0.4710     4.8040 ha         1 00X       0.162000
     21 H39          4.1410    -1.1270    -0.2900 hc         1 00X       0.091200
     22 H39A         3.4250    -2.6350     0.3330 hc         1 00X       0.091200
     23 H303        -0.3340    -0.6620     0.6720 hn         1 00X       0.457467
@<TRIPOS>BOND
     1     1     3 1
     2     1    12 1
     3     1    13 1
     4     7     2 1
     5     2    14 1
     6     4     3 1
     7     3     7 1
     8     3    15 1
     9     5     4 ar
    10     4     8 ar
    11     6     5 ar
    12     5    16 1
    13     6    10 ar
    14     6    17 1
    15    11     7 1
    16     7    18 1
    17     9     8 ar
    18     8    11 1
    19    10     9 ar
    20     9    19 1
    21    10    20 1
    22    11    21 1
    23    11    22 1
    24    23     1 1
@<TRIPOS>SUBSTRUCTURE
     1 00X         1 TEMP              0 ****  ****    0 ROOT
