@<TRIPOS>MOLECULE
molecule
   16    16     1     0     0
SMALL
bcc


@<TRIPOS>ATOM
      1 C            0.0000     0.0000     0.0000 c3         1 010       0.188700
      2 O            1.4290     0.0000     0.0000 oh         1 010      -0.603800
      3 C1          -0.7330     0.4360     2.3530 ca         1 010      -0.106000
      4 C2          -1.1940     0.0000     3.5820 ca         1 010      -0.132000
      5 C3          -1.4180    -1.3470     3.7980 ca         1 010      -0.122000
      6 C4          -1.1830    -2.2580     2.7860 ca         1 010      -0.132000
      7 C5          -0.7220    -1.8220     1.5570 ca         1 010      -0.106000
      8 C6          -0.5020    -0.4750     1.3390 ca         1 010      -0.087300
      9 H           -0.3610    -0.6630    -0.7770 h1         1 010       0.024700
     10 HA          -0.3610     1.0040    -0.1860 h1         1 010       0.024700
     11 HO           1.7430     0.2980    -0.8370 ho         1 010       0.400000
     12 H2          -1.3770     0.7140     4.3760 ha         1 010       0.130000
     13 H3          -1.7800    -1.6880     4.7610 ha         1 010       0.129000
     14 H4          -1.3570    -3.3130     2.9560 ha         1 010       0.130000
     15 H5          -0.5370    -2.5360     0.7640 ha         1 010       0.131000
     16 H1          -0.5570     1.4910     2.1840 ha         1 010       0.131000
@<TRIPOS>BOND
     1     2     1 1
     2     1     8 1
     3     1     9 1
     4     1    10 1
     5     2    11 1
     6     8     3 ar
     7     3     4 ar
     8     3    16 1
     9     4     5 ar
    10     4    12 1
    11     6     5 ar
    12     5    13 1
    13     7     6 ar
    14     6    14 1
    15     8     7 ar
    16     7    15 1
@<TRIPOS>SUBSTRUCTURE
     1 010         1 TEMP              0 ****  ****    0 ROOT
