@<TRIPOS>MOLECULE
010
   16    16     1     0     0
SMALL
bcc


@<TRIPOS>ATOM
      1 C            0.0250    -0.1320     0.1420 c3         1 010       0.176700
      2 O            1.2060     0.5950    -0.1630 oh         1 010      -0.598800
      3 C1          -1.7090    -0.2540     1.9190 ca         1 010      -0.116500
      4 C2          -2.2670     0.1660     3.1230 ca         1 010      -0.132000
      5 C3          -1.6620     1.1880     3.8560 ca         1 010      -0.129000
      6 C4          -0.4980     1.7890     3.3800 ca         1 010      -0.132000
      7 C5           0.0640     1.3710     2.1740 ca         1 010      -0.116500
      8 C6          -0.5390     0.3480     1.4380 ca         1 010      -0.090300
      9 H            0.2660    -1.2290     0.2160 h1         1 010       0.031200
     10 HA          -0.7310     0.0160    -0.6790 h1         1 010       0.031200
     11 HO           1.5260     0.2470    -1.0040 ho         1 010       0.403000
     12 H2          -3.1860    -0.3090     3.4970 ha         1 010       0.131000
     13 H3          -2.1040     1.5180     4.8080 ha         1 010       0.130000
     14 H4          -0.0190     2.5950     3.9560 ha         1 010       0.131000
     15 H5           0.9840     1.8430     1.7940 ha         1 010       0.140500
     16 H1          -2.1870    -1.0590     1.3420 ha         1 010       0.140500
@<TRIPOS>BOND
     1     1     2 1   
     2     1     8 1   
     3     1     9 1   
     4     1    10 1   
     5     2    11 1   
     6     3     4 ar  
     7     3     8 ar  
     8     3    16 1   
     9     4     5 ar  
    10     4    12 1   
    11     5     6 ar  
    12     5    13 1   
    13     6     7 ar  
    14     6    14 1   
    15     7     8 ar  
    16     7    15 1   
@<TRIPOS>SUBSTRUCTURE
     1 010         1 TEMP              0 ****  ****    0 ROOT
