@<TRIPOS>MOLECULE
molecule
   79    82     1     0     0
SMALL
bcc


@<TRIPOS>ATOM
      1 C            0.0000     0.0000     0.0000 c          1 012       0.635100
      2 O            1.2130     0.0000     0.0000 o          1 012      -0.565100
      3 N           -0.6740     0.0000     1.1670 ns         1 012      -0.582900
      4 CA           0.0580     0.0000     2.4360 c3         1 012       0.116700
      5 CB           0.4210     1.4370     2.8150 c3         1 012      -0.045100
      6 CG           1.3840     1.9960     1.8000 ca         1 012      -0.070300
      7 CD1          0.9050     2.6570     0.6840 ca         1 012      -0.119500
      8 CD2          2.7460     1.8540     1.9860 ca         1 012      -0.119500
      9 CE1          1.7880     3.1700    -0.2490 ca         1 012      -0.122000
     10 CE2          3.6290     2.3660     1.0550 ca         1 012      -0.122000
     11 CZ           3.1500     3.0230    -0.0640 ca         1 012      -0.121000
     12 C1          -0.8190    -0.6100     3.5310 c3         1 012       0.135100
     13 OG          -1.9580     0.2260     3.7510 oh         1 012      -0.594800
     14 C2          -0.0130    -0.7250     4.8250 c3         1 012       0.139800
     15 N2          -0.8150    -1.4190     5.8430 n7         1 012      -0.810200
     16 C20         -0.0710    -1.5480     7.1030 c3         1 012       0.206100
     17 C21         -0.9230    -2.2630     8.1190 ca         1 012      -0.046300
     18 C22         -0.8710    -3.6410     8.2160 ca         1 012      -0.184000
     19 C23         -1.6520    -4.3010     9.1470 ca         1 012      -0.085000
     20 C24         -2.4850    -3.5850     9.9840 ca         1 012      -0.204000
     21 C25         -2.5400    -2.2010     9.8890 ca         1 012       0.204600
     22 C26         -1.7510    -1.5400     8.9550 ca         1 012      -0.181000
     23 N27         -3.3830    -1.4730    10.7330 nh         1 012      -0.741000
     24 C28         -4.2100    -2.1710    11.7200 c3         1 012       0.232600
     25 C29         -3.4380    -0.0130    10.6310 c3         1 012       0.232600
     26 C30         -0.7530     0.0060    -1.3060 c3         1 012       0.009700
     27 N31          0.1200     0.4490    -2.4030 ns         1 012      -0.572900
     28 C32          0.2300    -0.5350    -3.3030 c          1 012       0.823500
     29 O33          0.8950    -0.4370    -4.3160 o          1 012      -0.684500
     30 N34         -0.4600    -1.6390    -2.9870 n          1 012      -0.516800
     31 C35         -1.1510    -1.4270    -1.7070 c3         1 012       0.094000
     32 C36         -0.5180    -2.8630    -3.7910 c3         1 012       0.198300
     33 C41          0.5930    -3.7920    -3.3720 ca         1 012      -0.085300
     34 C42          0.3780    -4.7150    -2.3680 ca         1 012      -0.151000
     35 C43          1.4010    -5.5700    -1.9830 ca         1 012       0.134100
     36 C44          2.6360    -5.4940    -2.6080 ca         1 012      -0.213000
     37 C45          2.8470    -4.5680    -3.6110 ca         1 012      -0.091000
     38 C46          1.8240    -3.7220    -3.9970 ca         1 012      -0.133000
     39 O47          1.1920    -6.4800    -0.9960 os         1 012      -0.334900
     40 C48          2.2900    -7.3280    -0.6510 c3         1 012       0.129700
     41 HN          -1.6750    -0.0170     1.1670 hn         1 012       0.313500
     42 HA           0.9630    -0.5850     2.3310 h1         1 012       0.086700
     43 HB          -0.4760     2.0440     2.8330 hc         1 012       0.062200
     44 HBA          0.8840     1.4470     3.7940 hc         1 012       0.062200
     45 HD1         -0.1630     2.7720     0.5400 ha         1 012       0.121000
     46 HD2          3.1210     1.3390     2.8630 ha         1 012       0.121000
     47 HE1          1.4120     3.6870    -1.1230 ha         1 012       0.123500
     48 HE2          4.6960     2.2530     1.2010 ha         1 012       0.123500
     49 HZ           3.8420     3.4250    -0.7940 ha         1 012       0.127000
     50 H1          -1.1490    -1.5950     3.2230 h1         1 012       0.036700
     51 HOG         -2.7420    -0.2960     3.7180 ho         1 012       0.406000
     52 H2           0.2420     0.2660     5.1810 h1         1 012       0.046200
     53 H2A          0.8940    -1.2860     4.6370 h1         1 012       0.046200
     54 HN2         -1.0640    -2.3290     5.5080 hn         1 012       0.351800
     55 H20          0.8360    -2.1130     6.9300 h1         1 012       0.039200
     56 H20A         0.1830    -0.5620     7.4740 h1         1 012       0.039200
     57 H22         -0.2180    -4.2040     7.5610 ha         1 012       0.123000
     58 H23         -1.6090    -5.3810     9.2210 ha         1 012       0.127000
     59 H24         -3.0980    -4.1030    10.7130 ha         1 012       0.131000
     60 H26         -1.7910    -0.4600     8.8790 ha         1 012       0.138000
     61 H28         -4.8760    -2.8580    11.2110 h1         1 012       0.034533
     62 H28A        -3.5730    -2.7230    12.4000 h1         1 012       0.034533
     63 H28B        -4.7940    -1.4490    12.2770 h1         1 012       0.034533
     64 H29         -4.1230     0.3750    11.3760 h1         1 012       0.034533
     65 H29A        -3.7830     0.2680     9.6430 h1         1 012       0.034533
     66 H29B        -2.4510     0.3990    10.8000 h1         1 012       0.034533
     67 H30         -1.6300     0.6380    -1.2420 h1         1 012       0.062700
     68 HN31         0.5610     1.3450    -2.4680 hn         1 012       0.368500
     69 H35         -0.6940    -2.0950    -0.9870 h1         1 012       0.068700
     70 H35A        -2.2130    -1.4130    -1.9190 h1         1 012       0.068700
     71 H36         -1.4730    -3.3510    -3.6380 h1         1 012       0.064700
     72 H36A        -0.4040    -2.6130    -4.8390 h1         1 012       0.064700
     73 H42         -0.5890    -4.7730    -1.8820 ha         1 012       0.135000
     74 H44          3.4370    -6.1590    -2.3070 ha         1 012       0.133000
     75 H45          3.8120    -4.5100    -4.1010 ha         1 012       0.133000
     76 H46          1.9900    -2.9960    -4.7840 ha         1 012       0.152000
     77 H48          1.9920    -8.0000     0.1450 h1         1 012       0.041033
     78 H48A         3.1240    -6.7210    -0.3180 h1         1 012       0.041033
     79 H48B         2.5870    -7.9050    -1.5180 h1         1 012       0.041033
@<TRIPOS>BOND
     1     1     2 2   
     2     1     3 1   
     3     1    26 1   
     4     3     4 1   
     5     4     5 1   
     6     4    12 1   
     7     5     6 1   
     8     6     7 ar  
     9     6     8 ar  
    10     7     9 ar  
    11     8    10 ar  
    12     9    11 ar  
    13    10    11 ar  
    14    12    13 1   
    15    12    14 1   
    16    14    15 1   
    17    15    16 1   
    18    16    17 1   
    19    17    18 ar  
    20    17    22 ar  
    21    18    19 ar  
    22    19    20 ar  
    23    20    21 ar  
    24    21    22 ar  
    25    21    23 1   
    26    23    24 1   
    27    23    25 1   
    28    26    27 1   
    29    26    31 1   
    30    27    28 1   
    31    28    29 2   
    32    28    30 1   
    33    30    31 1   
    34    30    32 1   
    35    32    33 1   
    36    33    34 ar  
    37    33    38 ar  
    38    34    35 ar  
    39    35    36 ar  
    40    35    39 1   
    41    36    37 ar  
    42    37    38 ar  
    43    39    40 1   
    44     3    41 1   
    45     4    42 1   
    46     5    43 1   
    47     5    44 1   
    48     7    45 1   
    49     8    46 1   
    50     9    47 1   
    51    10    48 1   
    52    11    49 1   
    53    12    50 1   
    54    13    51 1   
    55    14    52 1   
    56    14    53 1   
    57    15    54 1   
    58    16    55 1   
    59    16    56 1   
    60    18    57 1   
    61    19    58 1   
    62    20    59 1   
    63    22    60 1   
    64    24    61 1   
    65    24    62 1   
    66    24    63 1   
    67    25    64 1   
    68    25    65 1   
    69    25    66 1   
    70    26    67 1   
    71    27    68 1   
    72    31    69 1   
    73    31    70 1   
    74    32    71 1   
    75    32    72 1   
    76    34    73 1   
    77    36    74 1   
    78    37    75 1   
    79    38    76 1   
    80    40    77 1   
    81    40    78 1   
    82    40    79 1   
@<TRIPOS>SUBSTRUCTURE
     1 012         1 TEMP              0 ****  ****    0 ROOT
