@<TRIPOS>MOLECULE
012
   81    84     1     0     0
SMALL
bcc


@<TRIPOS>ATOM
      1 C           -0.2890     2.1930    -1.3420 c          1 012       0.528100
      2 O            0.1690     3.2470    -1.7530 o          1 012      -0.375100
      3 N           -0.5180     2.1260     0.1490 ny         1 012      -0.674800
      4 CA           0.4110     1.1960     0.8970 c3         1 012       0.121500
      5 CB           1.1670     1.9460     2.0090 c3         1 012      -0.045100
      6 CG           1.9180     3.1150     1.4870 ca         1 012      -0.167300
      7 CD1          1.4220     4.4110     1.6810 ca         1 012      -0.131000
      8 CD2          3.1510     2.9360     0.8480 ca         1 012      -0.131000
      9 CE1          2.1470     5.5130     1.2310 ca         1 012      -0.106500
     10 CE2          3.8740     4.0400     0.3980 ca         1 012      -0.106500
     11 CZ           3.3730     5.3290     0.5870 ca         1 012      -0.087000
     12 C1          -0.3490    -0.0190     1.4950 c3         1 012       0.113100
     13 OG          -0.7060     0.1720     2.8460 oh         1 012      -0.590800
     14 C2           0.5610    -1.2660     1.4820 c3         1 012       0.112800
     15 N2          -0.2210    -2.5050     1.7470 ny         1 012      -0.770000
     16 C20          0.6610    -3.7220     1.8600 c3         1 012       0.179100
     17 C21          1.4130    -3.7380     3.1460 ca         1 012      -0.142300
     18 C22          2.7330    -3.2900     3.1830 ca         1 012      -0.173000
     19 C23          3.4350    -3.3600     4.3880 ca         1 012      -0.075000
     20 C24          2.8370    -3.8530     5.5360 ca         1 012      -0.156000
     21 C25          1.4850    -4.3050     5.5240 ca         1 012       0.210600
     22 C26          0.7870    -4.2390     4.2890 ca         1 012      -0.198000
     23 N27          0.8550    -4.7390     6.6820 nh         1 012      -0.663000
     24 C28          1.6310    -4.9000     7.8850 c3         1 012       0.187600
     25 C29         -0.3780    -5.4720     6.5740 c3         1 012       0.187600
     26 C30         -0.6820     1.0260    -2.2490 c3         1 012      -0.023300
     27 N31         -0.5320    -0.2690    -1.6010 ns         1 012      -0.547900
     28 C32         -1.8640    -0.8200    -1.4110 c          1 012       0.755500
     29 O33         -2.0430    -1.8240    -0.6940 o          1 012      -0.642500
     30 N34         -2.8370    -0.0530    -2.0850 n          1 012      -0.413800
     31 C35         -2.2030     1.1400    -2.6450 c3         1 012       0.046000
     32 C36         -4.2080     0.0260    -1.6230 c3         1 012       0.119300
     33 C41         -4.4570     1.1450    -0.6500 ca         1 012      -0.103300
     34 C42         -3.6940     1.1980     0.5200 ca         1 012      -0.232000
     35 C43         -3.8150     2.3010     1.3750 ca         1 012       0.099100
     36 C44         -4.7760     3.2930     1.1330 ca         1 012      -0.156000
     37 C45         -5.5840     3.1830     0.0030 ca         1 012      -0.066000
     38 C46         -5.4110     2.1310    -0.9030 ca         1 012      -0.119000
     39 O47         -2.8760     2.3590     2.3930 os         1 012      -0.414900
     40 C48         -3.2870     3.0550     3.5760 c3         1 012       0.112700
     41 HN          -0.3660     3.0820     0.5270 hn         1 012       0.474300
     42 HA           1.1730     0.8270     0.1460 hx         1 012       0.111700
     43 HB           1.8700     1.2020     2.4760 hc         1 012       0.093200
     44 HBA          0.4490     2.2640     2.8140 hc         1 012       0.093200
     45 HD1          0.4790     4.5690     2.2270 ha         1 012       0.128500
     46 HD2          3.5630     1.9250     0.7190 ha         1 012       0.128500
     47 HE1          1.7600     6.5320     1.3960 ha         1 012       0.160000
     48 HE2          4.8480     3.8950    -0.0950 ha         1 012       0.160000
     49 HZ           3.9490     6.2020     0.2390 ha         1 012       0.166000
     50 H1          -1.2770    -0.2420     0.8910 h1         1 012       0.064700
     51 HOG         -1.4260     0.8220     2.8860 ho         1 012       0.452000
     52 H2           1.0560    -1.3700     0.4760 hx         1 012       0.121200
     53 H2A          1.3510    -1.1750     2.2870 hx         1 012       0.121200
     54 HN2         -0.7280    -2.3820     2.6350 hn         1 012       0.468300
     55 H20          1.3620    -3.7240     0.9770 hx         1 012       0.108700
     56 H20A        -0.0220    -4.6200     1.7870 hx         1 012       0.108700
     57 H22          3.2330    -2.9230     2.2760 ha         1 012       0.128000
     58 H23          4.4870    -3.0300     4.4240 ha         1 012       0.157000
     59 H24          3.4320    -3.9030     6.4630 ha         1 012       0.163000
     60 H26         -0.2470    -4.6070     4.2160 ha         1 012       0.135000
     61 H28          0.9660    -5.2380     8.7230 h1         1 012       0.052700
     62 H28A         2.4540    -5.6540     7.7510 h1         1 012       0.052700
     63 H28B         2.0830    -3.9120     8.1720 h1         1 012       0.052700
     64 H29         -1.1930    -4.7820     6.2240 h1         1 012       0.052700
     65 H29A        -0.2910    -6.3270     5.8480 h1         1 012       0.052700
     66 H29B        -0.6720    -5.8840     7.5750 h1         1 012       0.052700
     67 H30         -0.0330     1.1320    -3.1700 h1         1 012       0.148700
     68 HN31         0.1100    -0.8910    -2.0520 hn         1 012       0.328500
     69 H35         -2.3010     1.1130    -3.7660 h1         1 012       0.104700
     70 H35A        -2.6680     2.0860    -2.2590 h1         1 012       0.104700
     71 H36         -4.8500     0.1610    -2.5430 h1         1 012       0.109200
     72 H36A        -4.4710    -0.9640    -1.1470 h1         1 012       0.109200
     73 H42         -3.0580     0.3480     0.8040 ha         1 012       0.124000
     74 H44         -4.9010     4.1380     1.8280 ha         1 012       0.169000
     75 H45         -6.3620     3.9430    -0.1860 ha         1 012       0.174000
     76 H46         -6.0400     2.0800    -1.8080 ha         1 012       0.167000
     77 H48         -2.5140     2.7650     4.3330 h1         1 012       0.066367
     78 H48A        -3.2660     4.1560     3.3880 h1         1 012       0.066367
     79 H48B        -4.3040     2.7270     3.8970 h1         1 012       0.066367
     80 H21         -1.5010     1.8680     0.3290 hn         1 012       0.474300
     81 H231        -0.9070    -2.6450     0.9880 hn         1 012       0.468300
@<TRIPOS>BOND
     1     1     2 2   
     2     1     3 1   
     3     1    26 1   
     4     3     4 1   
     5     3    41 1   
     6     3    80 1   
     7     4     5 1   
     8     4    12 1   
     9     4    42 1   
    10     5     6 1   
    11     5    43 1   
    12     5    44 1   
    13     6     7 ar  
    14     6     8 ar  
    15     7     9 ar  
    16     7    45 1   
    17     8    10 ar  
    18     8    46 1   
    19     9    11 ar  
    20     9    47 1   
    21    10    11 ar  
    22    10    48 1   
    23    11    49 1   
    24    12    13 1   
    25    12    14 1   
    26    12    50 1   
    27    13    51 1   
    28    14    15 1   
    29    14    52 1   
    30    14    53 1   
    31    15    16 1   
    32    15    54 1   
    33    15    81 1   
    34    16    17 1   
    35    16    55 1   
    36    16    56 1   
    37    17    18 ar  
    38    17    22 ar  
    39    18    19 ar  
    40    18    57 1   
    41    19    20 ar  
    42    19    58 1   
    43    20    21 ar  
    44    20    59 1   
    45    21    22 ar  
    46    21    23 1   
    47    22    60 1   
    48    23    24 1   
    49    23    25 1   
    50    24    61 1   
    51    24    62 1   
    52    24    63 1   
    53    25    64 1   
    54    25    65 1   
    55    25    66 1   
    56    26    27 1   
    57    26    31 1   
    58    26    67 1   
    59    27    28 1   
    60    27    68 1   
    61    28    29 2   
    62    28    30 1   
    63    30    31 1   
    64    30    32 1   
    65    31    69 1   
    66    31    70 1   
    67    32    33 1   
    68    32    71 1   
    69    32    72 1   
    70    33    34 ar  
    71    33    38 ar  
    72    34    35 ar  
    73    34    73 1   
    74    35    36 ar  
    75    35    39 1   
    76    36    37 ar  
    77    36    74 1   
    78    37    38 ar  
    79    37    75 1   
    80    38    76 1   
    81    39    40 1   
    82    40    77 1   
    83    40    78 1   
    84    40    79 1   
@<TRIPOS>SUBSTRUCTURE
     1 012         1 TEMP              0 ****  ****    0 ROOT
