@<TRIPOS>MOLECULE
molecule
   14    14     1     0     0
SMALL
bcc


@<TRIPOS>ATOM
      1 C1           0.0000     0.0000     0.0000 cc         1 013       0.343200
      2 C2           1.3370     0.0000     0.0000 cd         1 013      -0.083700
      3 S3           1.8790     0.0000     1.6760 ss         1 013      -0.232300
      4 C4           0.2560    -0.0000     2.2110 cd         1 013       0.402300
      5 N5          -0.5460    -0.0000     1.2000 nc         1 013      -0.688000
      6 C6           2.2220     0.0010    -1.2190 c3         1 013       0.232700
      7 O7           2.5070     1.3700    -1.6100 os         1 013      -0.470900
      8 C10          3.2900     1.5470    -2.6900 c          1 013       0.471100
      9 O24          3.7260     0.5840    -3.2880 o          1 013      -0.577000
     10 H1          -0.5860    -0.0000    -0.9110 h4         1 013       0.047100
     11 H4          -0.0550    -0.0000     3.2490 h5         1 013       0.043100
     12 H61          1.7180    -0.5090    -2.0310 h1         1 013       0.044200
     13 H62A         3.1500    -0.5100    -0.9920 h1         1 013       0.044200
     14 OXT          3.5920     2.7890    -3.1050 o          1 013      -0.577000
@<TRIPOS>BOND
     1     1     2 2
     2     1     5 1
     3     1    10 1
     4     2     3 1
     5     2     6 1
     6     3     4 1
     7     4     5 2
     8     4    11 1
     9     6     7 1
    10     6    12 1
    11     6    13 1
    12     7     8 1
    13     8     9 1
    14     8    14 1
@<TRIPOS>SUBSTRUCTURE
     1 013         1 TEMP              0 ****  ****    0 ROOT
