@<TRIPOS>MOLECULE
molecule
   24    26     1     0     0
SMALL
bcc


@<TRIPOS>ATOM
      1 F            0.0000     0.0000     0.0000 f          1 014      -0.137900
      2 Cl           0.3840     0.0160    -2.9170 cl         1 014      -0.104400
      3 N1           7.7330    -0.0150     1.5880 nc         1 014      -0.591800
      4 O1          11.8010    -0.0270     0.3690 o          1 014      -0.833800
      5 C2           9.3710    -0.0150     0.1170 cd         1 014      -0.292900
      6 N2           7.1810    -0.0060     0.3020 na         1 014       0.043300
      7 O2          10.8880    -0.0070    -1.6540 o          1 014      -0.833800
      8 C3           9.0340    -0.0200     1.4910 cd         1 014       0.400200
      9 N3           4.8160     0.0000     0.9200 na         1 014      -0.264300
     10 C4           8.1870    -0.0060    -0.5930 cc         1 014      -0.076300
     11 N4           5.3240     0.0080    -1.2080 nc         1 014      -0.641100
     12 C5           5.8240     0.0000     0.0000 cd         1 014       0.597300
     13 C6           3.6220     0.0030     0.2210 ca         1 014      -0.082200
     14 C7           2.2860    -0.0010     0.5990 ca         1 014      -0.156000
     15 C8           1.3000     0.0030    -0.3670 ca         1 014       0.127900
     16 C10          1.6370     0.0110    -1.7160 ca         1 014      -0.025600
     17 C11          2.9580     0.0140    -2.1060 ca         1 014      -0.056000
     18 C12          3.9670     0.0100    -1.1400 ca         1 014       0.119400
     19 H3           9.7330    -0.0270     2.3190 h4         1 014       0.069100
     20 H4           8.0860    -0.0000    -1.6720 h4         1 014       0.202000
     21 H7           2.0190    -0.0880     1.6450 ha         1 014       0.143000
     22 H11          3.2130     0.1070    -3.1550 ha         1 014       0.161000
     23 HN3          4.9200     0.1280     1.9070 hn         1 014       0.321700
     24 C1          10.7310    -0.0170    -0.4490 c          1 014       0.909200
@<TRIPOS>BOND
     1    15     1 1
     2     2    16 1
     3     7    24 1
     4    24     5 1
     5    24     4 1
     6     6     3 1
     7     8     3 2
     8    10     5 2
     9     5     8 1
    10    10     6 1
    11    12     6 1
    12     8    19 1
    13    13     9 1
    14    12     9 1
    15    10    20 1
    16    18    11 1
    17    11    12 2
    18    18    13 ar
    19    13    14 ar
    20    15    14 ar
    21    14    21 1
    22    16    15 ar
    23    17    16 ar
    24    17    18 ar
    25    17    22 1
    26     9    23 1
@<TRIPOS>SUBSTRUCTURE
     1 014         1 TEMP              0 ****  ****    0 ROOT
