@<TRIPOS>MOLECULE
014
   24    26     1     0     0
SMALL
bcc


@<TRIPOS>ATOM
      1 F           -0.1920     0.4590    -0.0340 f          1 014      -0.140900
      2 Cl           0.2470    -0.0920    -2.9380 cl         1 014      -0.097400
      3 N1           7.3540    -0.3350     1.7630 nc         1 014      -0.577800
      4 O1          11.4480    -1.0610     0.9910 o          1 014      -0.819800
      5 C2           9.1710    -0.8280     0.4050 cd         1 014      -0.260900
      6 N2           6.9450    -0.4930     0.4660 na         1 014       0.012300
      7 O2          10.8830    -1.3390    -1.1590 o          1 014      -0.819800
      8 C3           8.6830    -0.5300     1.7540 cd         1 014       0.368200
      9 N3           4.5710    -0.0590     0.9990 na         1 014      -0.285300
     10 C4           8.0410    -0.7980    -0.3970 cc         1 014      -0.077300
     11 N4           5.1410    -0.5140    -1.2160 nc         1 014      -0.607100
     12 C5           5.6110    -0.3670     0.0660 cd         1 014       0.581300
     13 C6           3.3890    -0.0110     0.2620 ca         1 014      -0.059200
     14 C7           2.0710     0.2420     0.6320 ca         1 014      -0.164000
     15 C8           1.0970     0.2140    -0.3790 ca         1 014       0.118900
     16 C10          1.4460    -0.0630    -1.7260 ca         1 014      -0.035600
     17 C11          2.7640    -0.3170    -2.1010 ca         1 014      -0.067000
     18 C12          3.7570    -0.2960    -1.1180 ca         1 014       0.093400
     19 H3           9.3130    -0.4730     2.6450 h4         1 014       0.059100
     20 H4           7.9020    -0.9570    -1.4670 h4         1 014       0.201000
     21 H7           1.7840     0.4580     1.6690 ha         1 014       0.150000
     22 H11          3.0240    -0.5300    -3.1490 ha         1 014       0.164000
     23 HN3          4.6780     0.0880     1.9680 hn         1 014       0.325700
     24 C1          10.6080    -1.0970     0.0480 c          1 014       0.936200
@<TRIPOS>BOND
     1     1    15 1   
     2     2    16 1   
     3     3     6 1   
     4     3     8 2   
     5     4    24 1   
     6     5     8 1   
     7     5    10 2   
     8     5    24 1   
     9     6    10 1   
    10     6    12 1   
    11     7    24 1   
    12     8    19 1   
    13     9    12 1   
    14     9    13 1   
    15     9    23 1   
    16    10    20 1   
    17    11    12 2   
    18    11    18 1   
    19    13    14 ar  
    20    13    18 ar  
    21    14    15 ar  
    22    14    21 1   
    23    15    16 ar  
    24    16    17 ar  
    25    17    18 ar  
    26    17    22 1   
@<TRIPOS>SUBSTRUCTURE
     1 014         1 TEMP              0 ****  ****    0 ROOT
