@<TRIPOS>MOLECULE
molecule
   77    80     1     0     0
SMALL
bcc


@<TRIPOS>ATOM
      1 N1           0.0000     0.0000     0.0000 nv         1 017      -0.761200
      2 C2           1.3690     0.0000     0.0000 ca         1 017       0.335600
      3 C3           2.0100     0.0000     1.2520 ca         1 017      -0.230000
      4 C4           3.3910     0.0120     1.2550 ca         1 017       0.068500
      5 C5           4.1140    -0.0570     0.0770 ca         1 017      -0.713500
      6 C6           3.5270    -0.0050    -1.1880 ca         1 017       0.068500
      7 C7           2.1190     0.0390    -1.1840 ca         1 017      -0.230000
      8 S8           5.9130     0.1000     0.2680 sy         1 017       1.565200
      9 O9           6.3730    -0.5100     1.6110 o          1 017      -0.568300
     10 O10          6.5710    -0.5000    -1.0280 o          1 017      -0.568300
     11 N11          6.3970     1.7900     0.2690 nx         1 017      -0.559300
     12 C12          6.1150     2.5320    -0.9640 c3         1 017       0.127800
     13 C13          7.2100     3.5400    -1.3440 c3         1 017      -0.088700
     14 C14          8.4690     2.7680    -1.6460 c3         1 017      -0.102600
     15 C15          6.6580     4.2330    -2.5680 c3         1 017      -0.102600
     16 C16          6.2800     2.4600     1.5890 c3         1 017       0.101800
     17 C17          7.7170     2.8420     2.0800 c3         1 017       0.102100
     18 O18          7.5840     3.7360     3.1920 oh         1 017      -0.614800
     19 C19          8.5160     1.5970     2.5350 c3         1 017       0.147500
     20 N20          9.8630     2.0340     2.7870 ny         1 017      -0.640800
     21 C21         10.9110     1.6440     2.0180 c          1 017       0.623100
     22 O22         10.8840     0.8490     1.0210 o          1 017      -0.448000
     23 O23         12.1010     2.2750     2.4950 os         1 017      -0.390900
     24 C24         13.3670     1.7110     1.9910 c3         1 017       0.129100
     25 C25         14.3060     2.9500     1.9350 c3         1 017       0.122400
     26 O26         14.7120     3.2230     3.2960 os         1 017      -0.388600
     27 C27         14.7750     1.9350     3.8870 c3         1 017       0.328900
     28 O28         14.2160     1.9910     5.1840 os         1 017      -0.393600
     29 C29         13.0250     1.1890     5.1300 c3         1 017       0.122400
     30 C30         13.3110     0.0730     4.1000 c3         1 017      -0.101400
     31 C31         14.1010     0.9140     3.0860 c3         1 017      -0.145700
     32 C32          7.9930     0.9150     3.8110 c3         1 017      -0.058100
     33 C33          9.5550    -0.5700     5.5490 ca         1 017      -0.132000
     34 C34         10.3360    -1.6780     5.9600 ca         1 017      -0.114500
     35 C35         10.3200    -2.8360     5.1900 ca         1 017      -0.091000
     36 C36          9.5740    -2.9130     4.0170 ca         1 017      -0.114500
     37 C37          8.7960    -1.8160     3.6220 ca         1 017      -0.132000
     38 C38          8.7470    -0.6530     4.4040 ca         1 017      -0.177300
     39 H11         -0.5000    -0.8630     0.0850 hn         1 017       0.474800
     40 H12         -0.5000     0.8640    -0.0700 hn         1 017       0.474800
     41 H3           1.4450     0.0550     2.1740 ha         1 017       0.180500
     42 H4           3.9170    -0.0110     2.2020 ha         1 017       0.169500
     43 H6           4.0800     0.4030    -2.0250 ha         1 017       0.169500
     44 H7           1.5960     0.0800    -2.1320 ha         1 017       0.180500
     45 H121         6.0030     1.8230    -1.7750 hx         1 017       0.067700
     46 H122         5.1810     3.0660    -0.8390 hx         1 017       0.067700
     47 H13          7.3740     4.2490    -0.5410 hc         1 017       0.041700
     48 H141         8.2170     1.7370    -1.8660 hc         1 017       0.050367
     49 H142         9.1300     2.8030    -0.7880 hc         1 017       0.050367
     50 H143         8.9660     3.2080    -2.5030 hc         1 017       0.050367
     51 H151         6.5160     3.5080    -3.3600 hc         1 017       0.050367
     52 H152         7.3550     4.9950    -2.8960 hc         1 017       0.050367
     53 H153         5.7080     4.6940    -2.3250 hc         1 017       0.050367
     54 H161         5.6780     3.3560     1.4920 hx         1 017       0.090700
     55 H162         5.8180     1.7860     2.3010 hx         1 017       0.090700
     56 H17          8.2510     3.3400     1.2790 h1         1 017       0.074700
     57 H18          7.4880     4.6190     2.8760 ho         1 017       0.450000
     58 H19          8.5270     0.8720     1.7300 hx         1 017       0.111700
     59 H20         10.0800     1.7630     3.7260 hn         1 017       0.493800
     60 H24         13.2860     1.1900     1.0450 h1         1 017       0.101700
     61 H251        13.7710     3.8010     1.5320 h1         1 017       0.082200
     62 H252        15.1750     2.7280     1.3270 h1         1 017       0.082200
     63 H27         15.8180     1.6570     3.9800 h2         1 017       0.132700
     64 H291        12.1860     1.7910     4.8020 h1         1 017       0.066700
     65 H292        12.8240     0.7550     6.1020 h1         1 017       0.066700
     66 H301        13.9240    -0.7120     4.5260 hc         1 017       0.053200
     67 H302        12.3950    -0.3120     3.6670 hc         1 017       0.053200
     68 H31         14.8480     0.2850     2.6180 hc         1 017       0.102700
     69 H321         7.9870     1.6410     4.6150 hc         1 017       0.101700
     70 H322         6.9770     0.5820     3.6350 hc         1 017       0.101700
     71 H35         10.9180    -3.6860     5.4970 ha         1 017       0.165000
     72 H36          9.5900    -3.8150     3.4180 ha         1 017       0.161500
     73 H37          8.2140    -1.8730     2.7100 ha         1 017       0.137000
     74 H33          9.5580     0.3380     6.1400 ha         1 017       0.137000
     75 H202         9.8420     3.0340     2.7920 hn         1 017       0.493800
     76 H111         7.3920     1.7010     0.2120 hn         1 017       0.385800
     77 H34         10.7810    -1.6910     6.9480 ha         1 017       0.161500
@<TRIPOS>BOND
     1     1     2 1   
     2     1    39 1   
     3     1    40 1   
     4     2     3 ar  
     5     2     7 ar  
     6     3     4 ar  
     7     3    41 1   
     8     4     5 ar  
     9     4    42 1   
    10     5     6 ar  
    11     5     8 1   
    12     6     7 ar  
    13     6    43 1   
    14     7    44 1   
    15     8     9 2   
    16     8    10 2   
    17     8    11 1   
    18    11    12 1   
    19    11    16 1   
    20    12    13 1   
    21    12    45 1   
    22    12    46 1   
    23    13    14 1   
    24    13    15 1   
    25    13    47 1   
    26    14    48 1   
    27    14    49 1   
    28    14    50 1   
    29    15    51 1   
    30    15    52 1   
    31    15    53 1   
    32    16    17 1   
    33    16    54 1   
    34    16    55 1   
    35    17    18 1   
    36    17    19 1   
    37    17    56 1   
    38    18    57 1   
    39    19    20 1   
    40    19    32 1   
    41    19    58 1   
    42    20    21 1   
    43    20    59 1   
    44    21    22 2   
    45    21    23 1   
    46    23    24 1   
    47    24    25 1   
    48    24    31 1   
    49    24    60 1   
    50    25    26 1   
    51    25    61 1   
    52    25    62 1   
    53    26    27 1   
    54    27    28 1   
    55    27    31 1   
    56    27    63 1   
    57    28    29 1   
    58    29    30 1   
    59    29    64 1   
    60    29    65 1   
    61    30    31 1   
    62    30    66 1   
    63    30    67 1   
    64    31    68 1   
    65    32    38 1   
    66    32    69 1   
    67    32    70 1   
    68    33    34 ar  
    69    33    38 ar  
    70    33    74 1   
    71    34    35 ar  
    72    34    77 1   
    73    35    36 ar  
    74    35    71 1   
    75    36    37 ar  
    76    36    72 1   
    77    37    38 ar  
    78    37    73 1   
    79    75    20 1   
    80    76    11 1   
@<TRIPOS>SUBSTRUCTURE
     1 017         1 TEMP              0 ****  ****    0 ROOT
