@<TRIPOS>MOLECULE
molecule
   75    78     1     0     0
SMALL
bcc


@<TRIPOS>ATOM
      1 N1           0.0000     0.0000     0.0000 nv         1 017      -0.994200
      2 C2           1.3960     0.0000     0.0000 ca         1 017       0.221600
      3 C3           2.0930     0.0000     1.2020 ca         1 017      -0.171500
      4 C4           3.4740    -0.0010     1.1980 ca         1 017      -0.028000
      5 C5           4.1630    -0.0010    -0.0010 ca         1 017      -0.329500
      6 C6           3.4730    -0.0020    -1.1990 ca         1 017      -0.028000
      7 C7           2.0920    -0.0060    -1.2020 ca         1 017      -0.171500
      8 S8           5.9250    -0.0020    -0.0020 sy         1 017       1.420200
      9 O9           6.3260     0.5410    -1.2520 o          1 017      -0.634300
     10 O10          6.3270     0.5440     1.2480 o          1 017      -0.634300
     11 N11          6.4150    -1.5840    -0.0000 n3         1 017      -0.810500
     12 C12          6.6310    -2.2840    -1.2690 c3         1 017       0.238800
     13 C13          8.1050    -2.1730    -1.6680 c3         1 017      -0.095700
     14 C14          8.9670    -2.9190    -0.6490 c3         1 017      -0.088100
     15 C15          8.3050    -2.7880    -3.0540 c3         1 017      -0.088100
     16 C16          6.6320    -2.2820     1.2680 c3         1 017       0.220800
     17 C17          5.3600    -3.0360     1.6600 c3         1 017       0.104100
     18 O18          5.1020    -4.0640     0.7010 oh         1 017      -0.600800
     19 C19          5.5430    -3.6630     3.0430 c3         1 017       0.122700
     20 N20          4.2860    -4.2830     3.4700 ns         1 017      -0.569900
     21 C21          4.0250    -4.4460     4.7820 c          1 017       0.745100
     22 O22          4.8330    -4.0780     5.6110 o          1 017      -0.595000
     23 O23          2.8710    -5.0160     5.1720 os         1 017      -0.433900
     24 C24          2.6560    -5.1590     6.6020 c3         1 017       0.138100
     25 C25          1.9170    -3.9290     7.1590 c3         1 017       0.115400
     26 O26          0.6400    -4.3750     7.6340 os         1 017      -0.422600
     27 C27          0.7560    -5.7700     7.9760 c3         1 017       0.332900
     28 O28         -0.5060    -6.4100     7.7390 os         1 017      -0.397600
     29 C29         -0.5870    -6.8700     6.3860 c3         1 017       0.128400
     30 C30          0.7450    -6.5160     5.6920 c3         1 017      -0.097400
     31 C31          1.7150    -6.3470     6.8890 c3         1 017      -0.139700
     32 C32          6.6420    -4.7270     2.9800 c3         1 017      -0.048100
     33 C33          6.1990    -6.3480     4.8360 ca         1 017      -0.116500
     34 C34          6.4440    -6.8340     6.1060 ca         1 017      -0.121500
     35 C35          7.3950    -6.2300     6.9060 ca         1 017      -0.126000
     36 C36          8.1040    -5.1410     6.4360 ca         1 017      -0.121500
     37 C37          7.8590    -4.6540     5.1650 ca         1 017      -0.116500
     38 C38          6.9080    -5.2580     4.3650 ca         1 017      -0.071300
     39 H11         -0.5000     0.8570     0.1310 hn         1 017       0.434800
     40 H12         -0.5000    -0.8560    -0.1350 hn         1 017       0.434800
     41 H3           1.5530     0.0000     2.1410 ha         1 017       0.143500
     42 H4           4.0180    -0.0010     2.1350 ha         1 017       0.150000
     43 H6           4.0160    -0.0050    -2.1370 ha         1 017       0.150000
     44 H7           1.5520    -0.0070    -2.1410 ha         1 017       0.143500
     45 H121         6.0140    -1.8360    -2.0380 h1         1 017       0.060200
     46 H122         6.3660    -3.3280    -1.1550 h1         1 017       0.060200
     47 H13          8.3950    -1.1290    -1.6910 hc         1 017       0.068700
     48 H141         9.9600    -3.0690    -1.0560 hc         1 017       0.035867
     49 H142         8.5180    -3.8800    -0.4300 hc         1 017       0.035867
     50 H143         9.0350    -2.3370     0.2620 hc         1 017       0.035867
     51 H151         7.6750    -2.2750    -3.7710 hc         1 017       0.035867
     52 H152         8.0380    -3.8380    -3.0260 hc         1 017       0.035867
     53 H153         9.3430    -2.6870    -3.3480 hc         1 017       0.035867
     54 H161         6.8770    -1.5620     2.0400 h1         1 017       0.083700
     55 H162         7.4490    -2.9850     1.1580 h1         1 017       0.083700
     56 H17          4.5240    -2.3470     1.6840 h1         1 017       0.044700
     57 H18          4.1930    -4.0400     0.4510 ho         1 017       0.403000
     58 H19          5.8250    -2.8950     3.7530 h1         1 017       0.091700
     59 H20          3.6110    -4.5660     2.7870 hn         1 017       0.318500
     60 H24          3.5990    -5.2950     7.1180 h1         1 017       0.089700
     61 H251         2.4830    -3.5010     7.9770 h1         1 017       0.064200
     62 H252         1.7810    -3.1950     6.3740 h1         1 017       0.064200
     63 H27          1.1240    -5.9260     8.9830 h2         1 017       0.095700
     64 H291        -1.4070    -6.3750     5.8790 h1         1 017       0.048700
     65 H292        -0.7340    -7.9430     6.3720 h1         1 017       0.048700
     66 H301         1.0680    -7.3260     5.0500 hc         1 017       0.066700
     67 H302         0.6540    -5.5890     5.1390 hc         1 017       0.066700
     68 H31          2.2200    -7.2580     7.1870 hc         1 017       0.088700
     69 H321         6.3210    -5.5390     2.3380 hc         1 017       0.061700
     70 H322         7.5480    -4.2870     2.5810 hc         1 017       0.061700
     71 H34          5.8880    -7.6880     6.4750 ha         1 017       0.124500
     72 H35          7.5870    -6.6120     7.9020 ha         1 017       0.125000
     73 H36          8.8500    -4.6680     7.0630 ha         1 017       0.124500
     74 H37          8.4140    -3.8010     4.7950 ha         1 017       0.124000
     75 H33          5.4540    -6.8210     4.2090 ha         1 017       0.124000
@<TRIPOS>BOND
     1     1     2 1   
     2     1    39 1   
     3     1    40 1   
     4     2     3 ar  
     5     2     7 ar  
     6     3     4 ar  
     7     3    41 1   
     8     4     5 ar  
     9     4    42 1   
    10     5     6 ar  
    11     5     8 1   
    12     6     7 ar  
    13     6    43 1   
    14     7    44 1   
    15     8     9 2   
    16     8    10 2   
    17     8    11 1   
    18    11    12 1   
    19    11    16 1   
    20    12    13 1   
    21    12    45 1   
    22    12    46 1   
    23    13    14 1   
    24    13    15 1   
    25    13    47 1   
    26    14    48 1   
    27    14    49 1   
    28    14    50 1   
    29    15    51 1   
    30    15    52 1   
    31    15    53 1   
    32    16    17 1   
    33    16    54 1   
    34    16    55 1   
    35    17    18 1   
    36    17    19 1   
    37    17    56 1   
    38    18    57 1   
    39    19    20 1   
    40    19    32 1   
    41    19    58 1   
    42    20    21 1   
    43    20    59 1   
    44    21    22 2   
    45    21    23 1   
    46    23    24 1   
    47    24    25 1   
    48    24    31 1   
    49    24    60 1   
    50    25    26 1   
    51    25    61 1   
    52    25    62 1   
    53    26    27 1   
    54    27    28 1   
    55    27    31 1   
    56    27    63 1   
    57    28    29 1   
    58    29    30 1   
    59    29    64 1   
    60    29    65 1   
    61    30    31 1   
    62    30    66 1   
    63    30    67 1   
    64    31    68 1   
    65    32    38 1   
    66    32    69 1   
    67    32    70 1   
    68    33    34 ar  
    69    33    38 ar  
    70    33    75 1   
    71    34    35 ar  
    72    34    71 1   
    73    35    36 ar  
    74    35    72 1   
    75    36    37 ar  
    76    36    73 1   
    77    37    38 ar  
    78    37    74 1   
@<TRIPOS>SUBSTRUCTURE
     1 017         1 TEMP              0 ****  ****    0 ROOT
