@<TRIPOS>MOLECULE
018
   29    30     1     0     0
SMALL
bcc


@<TRIPOS>ATOM
      1 OAR         -0.1190    -0.1550    -0.3930 o          1 018      -0.221500
      2 NAQ          1.0170     0.1190    -0.1070 no         1 018       0.327200
      3 OAP          1.3100     0.4500     1.0160 o          1 018      -0.221500
      4 CAI          2.0440     0.0680    -1.1700 ca         1 018      -0.281200
      5 CAH          1.5710     0.0070    -2.4960 ca         1 018       0.025000
      6 CAD          2.4560    -0.0060    -3.5590 ca         1 018      -0.245300
      7 CAC          1.9420    -0.0530    -4.9890 c3         1 018       0.699200
      8 FAA          0.7140    -0.6500    -5.1380 f          1 018      -0.235633
      9 FAG          1.7890     1.1810    -5.5740 f          1 018      -0.235633
     10 FAB          2.7580    -0.7340    -5.8610 f          1 018      -0.235633
     11 CAJ          3.4520     0.0780    -0.8950 ca         1 018       0.292600
     12 CAF          4.3220     0.0960    -2.0330 ca         1 018      -0.224000
     13 CAE          3.8390     0.0500    -3.3200 ca         1 018      -0.002000
     14 NAK          3.9600    -0.0090     0.3750 nu         1 018      -0.736600
     15 CAL          5.3720     0.0450     0.6630 c3         1 018       0.270100
     16 CAM          6.0080     1.3860     0.5480 cc         1 018      -0.163300
     17 CAN          7.1410     1.6620    -0.1940 cd         1 018      -0.171100
     18 SAO          7.5970     3.2560    -0.0430 ss         1 018       0.060200
     19 CAT          6.3380     3.6420     0.9830 cd         1 018      -0.170100
     20 CAS          5.5370     2.5510     1.2380 cc         1 018      -0.142000
     21 HAH          0.4800    -0.0330    -2.6880 ha         1 018       0.185000
     22 HAF          5.4110     0.1690    -1.8740 ha         1 018       0.157000
     23 HAE          4.5350     0.0580    -4.1760 ha         1 018       0.157000
     24 HNAK         3.3620     0.2280     1.1420 hn         1 018       0.464800
     25 HAL          5.4920    -0.3150     1.7290 h1         1 018       0.069700
     26 HALA         5.9120    -0.6880    -0.0050 h1         1 018       0.069700
     27 HAN          7.6850     0.9430    -0.8040 h4         1 018       0.172000
     28 HAT          6.1890     4.6420     1.3880 h4         1 018       0.178000
     29 HAS          4.6530     2.5500     1.8790 ha         1 018       0.160000
@<TRIPOS>BOND
     1     1     2 1   
     2     2     3 1   
     3     2     4 1   
     4     4     5 ar  
     5     4    11 ar  
     6     5     6 ar  
     7     5    21 1   
     8     6     7 1   
     9     6    13 ar  
    10     7     8 1   
    11     7     9 1   
    12     7    10 1   
    13    11    12 ar  
    14    11    14 1   
    15    12    13 ar  
    16    12    22 1   
    17    13    23 1   
    18    14    15 1   
    19    14    24 1   
    20    15    16 1   
    21    15    25 1   
    22    15    26 1   
    23    16    17 2   
    24    16    20 1   
    25    17    18 1   
    26    17    27 1   
    27    18    19 1   
    28    19    20 2   
    29    19    28 1   
    30    20    29 1   
@<TRIPOS>SUBSTRUCTURE
     1 018         1 TEMP              0 ****  ****    0 ROOT
