@<TRIPOS>MOLECULE
molecule
   29    30     1     0     0
SMALL
bcc


@<TRIPOS>ATOM
      1 OAR          0.0000     0.0000     0.0000 o          1 018      -0.205500
      2 NAQ          1.2170     0.0000     0.0000 no         1 018       0.300200
      3 OAP          1.8270     0.0000     1.0550 o          1 018      -0.205500
      4 CAI          1.9570    -0.0050    -1.2820 ca         1 018      -0.243200
      5 CAH          3.1240     0.7220    -1.4090 ca         1 018       0.022000
      6 CAD          3.8160     0.7180    -2.6080 ca         1 018      -0.252300
      7 CAC          5.0890     1.5130    -2.7420 c3         1 018       0.684200
      8 FAA          6.1780     0.7130    -2.3800 f          1 018      -0.221633
      9 FAG          5.2390     1.9320    -4.0690 f          1 018      -0.221633
     10 FAB          5.0330     2.6310    -1.9040 f          1 018      -0.221633
     11 CAJ          1.4810    -0.7450    -2.3570 ca         1 018       0.276600
     12 CAF          2.1780    -0.7470    -3.5580 ca         1 018      -0.225000
     13 CAE          3.3420    -0.0130    -3.6810 ca         1 018       0.000000
     14 NAK          0.3040    -1.4860    -2.2290 nu         1 018      -0.792600
     15 CAL         -0.2660    -2.1620    -3.3980 c3         1 018       0.297100
     16 CAM         -1.5250    -2.8860    -2.9940 cc         1 018      -0.153300
     17 CAN         -2.7280    -2.3120    -3.0400 cd         1 018      -0.045100
     18 SAO         -3.9490    -3.4570    -2.4980 ss         1 018      -0.137800
     19 CAT         -2.7190    -4.6870    -2.2320 cd         1 018      -0.068100
     20 CAS         -1.5210    -4.1990    -2.5540 cc         1 018      -0.150000
     21 HAH          3.4980     1.2970    -0.5710 ha         1 018       0.173000
     22 HAF          1.8070    -1.3210    -4.3980 ha         1 018       0.155000
     23 HAE          3.8860    -0.0140    -4.6180 ha         1 018       0.155000
     24 HNAK        -0.1300    -1.5850    -1.3330 hn         1 018       0.473800
     25 HAL         -0.4990    -1.4290    -4.1610 h1         1 018       0.050700
     26 HALA         0.4510    -2.8750    -3.7880 h1         1 018       0.050700
     27 HAN         -2.9240    -1.2960    -3.3610 h4         1 018       0.178000
     28 HAT         -2.9070    -5.6900    -1.8690 h4         1 018       0.176000
     29 HAS         -0.6120    -4.7820    -2.4710 ha         1 018       0.152000
@<TRIPOS>BOND
     1     1     2 1   
     2     2     3 1   
     3     2     4 1   
     4     4     5 ar  
     5     4    11 ar  
     6     5     6 ar  
     7     5    21 1   
     8     6     7 1   
     9     6    13 ar  
    10     7     8 1   
    11     7     9 1   
    12     7    10 1   
    13    11    12 ar  
    14    11    14 1   
    15    12    13 ar  
    16    12    22 1   
    17    13    23 1   
    18    14    15 1   
    19    14    24 1   
    20    15    16 1   
    21    15    25 1   
    22    15    26 1   
    23    16    17 2   
    24    16    20 1   
    25    17    18 1   
    26    17    27 1   
    27    18    19 1   
    28    19    20 2   
    29    19    28 1   
    30    20    29 1   
@<TRIPOS>SUBSTRUCTURE
     1 018         1 TEMP              0 ****  ****    0 ROOT
