@<TRIPOS>MOLECULE
molecule
   11    10     1     0     0
SMALL
bcc


@<TRIPOS>ATOM
      1 C            0.0000     0.0000     0.0000 c          1 01F       0.471100
      2 O            1.2140     0.0000     0.0000 o          1 01F      -0.587000
      3 O1          -0.6740     0.0000     1.1650 os         1 01F      -0.479900
      4 C1           0.1170     0.0010     2.3820 c3         1 01F       0.162400
      5 C2          -0.8150     0.0010     3.5960 c3         1 01F      -0.097100
      6 H241         0.7420    -0.8840     2.4070 h1         1 01F       0.022700
      7 H242         0.7420     0.8850     2.4070 h1         1 01F       0.022700
      8 H251        -1.4400     0.8850     3.5710 hc         1 01F       0.024033
      9 H252        -1.4400    -0.8840     3.5720 hc         1 01F       0.024033
     10 H253        -0.2250     0.0010     4.5050 hc         1 01F       0.024033
     11 OXT         -0.6730     0.0050    -1.1650 o          1 01F      -0.587000
@<TRIPOS>BOND
     1     1     2 1
     2     1     3 1
     3     3     4 1
     4     4     5 1
     5     4     6 1
     6     4     7 1
     7     5     8 1
     8     5     9 1
     9     5    10 1
    10     1    11 1
@<TRIPOS>SUBSTRUCTURE
     1 01F         1 TEMP              0 ****  ****    0 ROOT
