@<TRIPOS>MOLECULE
01H
   23    22     1     0     0
SMALL
bcc


@<TRIPOS>ATOM
      1 N1           0.0350    -0.1130    -0.4610 nz         1 01H      -0.837600
      2 C2           1.4640    -0.1180    -0.0410 c3         1 01H       0.102800
      3 C3           1.6960     0.4380     1.3680 c3         1 01H      -0.104400
      4 C4           3.1880     0.3830     1.6880 c3         1 01H      -0.115400
      5 C5           3.4120     0.9400     3.0950 c3         1 01H       0.118800
      6 N6           4.9180     0.8980     3.4520 ny         1 01H      -0.613800
      7 N7           5.2520     1.3970     4.7500 nz         1 01H      -0.667400
      8 HN11        -0.0410    -0.5000    -1.4170 hn         1 01H       0.485133
      9 HN12        -0.3470     0.8420    -0.4680 hn         1 01H       0.485133
     10 H21A         1.8290    -1.1870    -0.0980 hx         1 01H       0.130700
     11 H22A         2.0400     0.4970    -0.7970 hx         1 01H       0.130700
     12 H31          1.3330     1.5000     1.4290 hc         1 01H       0.095700
     13 H32          1.1230    -0.1680     2.1210 hc         1 01H       0.095700
     14 H41          3.5410    -0.6830     1.6210 hc         1 01H       0.105700
     15 H42          3.7510     0.9890     0.9250 hc         1 01H       0.105700
     16 H51          3.0760     2.0190     3.1530 hx         1 01H       0.146700
     17 H52          2.8610     0.3170     3.8610 hx         1 01H       0.146700
     18 HN6          5.2440    -0.0990     3.3810 hn         1 01H       0.530800
     19 HN7          6.2920     1.3340     4.9170 hn         1 01H       0.548467
     20 H2           4.7610     0.8400     5.4940 hn         1 01H       0.548467
     21 H13         -0.5380    -0.6910     0.1680 hn         1 01H       0.485133
     22 H73          4.9590     2.4020     4.8430 hn         1 01H       0.548467
     23 H62          5.4410     1.4580     2.7320 hn         1 01H       0.530800
@<TRIPOS>BOND
     1     1     2 1   
     2     1     8 1   
     3     1     9 1   
     4     1    21 1   
     5     2     3 1   
     6     2    10 1   
     7     2    11 1   
     8     3     4 1   
     9     3    12 1   
    10     3    13 1   
    11     4     5 1   
    12     4    14 1   
    13     4    15 1   
    14     5     6 1   
    15     5    16 1   
    16     5    17 1   
    17     6     7 1   
    18     6    18 1   
    19     6    23 1   
    20     7    19 1   
    21     7    20 1   
    22     7    22 1   
@<TRIPOS>SUBSTRUCTURE
     1 01H         1 TEMP              0 ****  ****    0 ROOT
