@<TRIPOS>MOLECULE
molecule
   22    21     1     0     0
SMALL
bcc


@<TRIPOS>ATOM
      1 N1           0.0000     0.0000     0.0000 nz         1 01H      -0.809600
      2 C2           1.4680     0.0000     0.0000 c3         1 01H       0.099800
      3 C3           1.9780     0.0000     1.4420 c3         1 01H      -0.112400
      4 C4           3.5080    -0.0000     1.4420 c3         1 01H      -0.069400
      5 C5           4.0190    -0.0010     2.8850 c3         1 01H       0.111800
      6 N6           5.4870    -0.0000     2.8850 n7         1 01H      -0.549000
      7 N7           6.0080    -0.0020     4.2430 nz         1 01H      -0.608400
      8 HN11        -0.3340     0.8170     0.4720 hn         1 01H       0.467133
      9 HN12        -0.3340     0.0000    -0.9440 hn         1 01H       0.467133
     10 H21A         1.8290     0.8840    -0.5110 hx         1 01H       0.121200
     11 H22A         1.8290    -0.8840    -0.5110 hx         1 01H       0.121200
     12 H31          1.6170    -0.8840     1.9530 hc         1 01H       0.074700
     13 H32          1.6170     0.8850     1.9530 hc         1 01H       0.074700
     14 H41          3.8690     0.8850     0.9320 hc         1 01H       0.084200
     15 H42          3.8690    -0.8840     0.9310 hc         1 01H       0.084200
     16 H51          3.6580    -0.8860     3.3950 h1         1 01H       0.074200
     17 H52          3.6570     0.8830     3.3970 h1         1 01H       0.074200
     18 HN6          5.8200     0.8100     2.4010 hn         1 01H       0.420800
     19 HN7          7.0090    -0.0040     4.2160 hn         1 01H       0.469133
     20 H2           5.6890     0.8160     4.7230 hn         1 01H       0.469133
     21 H13         -0.3340    -0.8100     0.4850 hn         1 01H       0.467133
     22 H73          5.6960    -0.8250     4.7190 hn         1 01H       0.469133
@<TRIPOS>BOND
     1     1     2 1   
     2     1     8 1   
     3     1     9 1   
     4     2     3 1   
     5     2    10 1   
     6     2    11 1   
     7     3     4 1   
     8     3    12 1   
     9     3    13 1   
    10     4     5 1   
    11     4    14 1   
    12     4    15 1   
    13     5     6 1   
    14     5    16 1   
    15     5    17 1   
    16     6     7 1   
    17     6    18 1   
    18     7    19 1   
    19     7    20 1   
    20    21     1 1   
    21    22     7 1   
@<TRIPOS>SUBSTRUCTURE
     1 01H         1 TEMP              0 ****  ****    0 ROOT
