@<TRIPOS>MOLECULE
01H
   22    21     1     0     0
SMALL
bcc


@<TRIPOS>ATOM
      1 N1           0.0000     0.0000     0.0000 nz         1 01H       0.092400
      2 C2           1.4680     0.0000     0.0000 c3         1 01H      -0.046200
      3 C3           1.9780     0.0000     1.4420 c3         1 01H      -0.031400
      4 C4           3.5080    -0.0000     1.4420 c3         1 01H      -0.007400
      5 C5           4.0190    -0.0010     2.8850 c3         1 01H       0.140800
      6 N6           5.4870    -0.0000     2.8850 n7         1 01H      -0.520000
      7 N7           6.0080    -0.0020     4.2430 nz         1 01H       0.202600
      8 HN11        -0.3340     0.8170     0.4720 hn         1 01H       0.230467
      9 HN12        -0.3340     0.0000    -0.9440 hn         1 01H       0.230467
     10 H21A         1.8290     0.8840    -0.5110 hx         1 01H       0.091700
     11 H22A         1.8290    -0.8840    -0.5110 hx         1 01H       0.091700
     12 H31          1.6170    -0.8840     1.9530 hc         1 01H       0.039700
     13 H32          1.6170     0.8850     1.9530 hc         1 01H       0.039700
     14 H41          3.8690     0.8850     0.9320 hc         1 01H       0.047700
     15 H42          3.8690    -0.8840     0.9310 hc         1 01H       0.047700
     16 H51          3.6580    -0.8860     3.3950 h1         1 01H       0.036700
     17 H52          3.6570     0.8830     3.3970 h1         1 01H       0.036700
     18 HN6          5.8200     0.8100     2.4010 hn         1 01H       0.330800
     19 HN7          7.0090    -0.0040     4.2160 hn         1 01H       0.238133
     20 H2           5.6890     0.8160     4.7230 hn         1 01H       0.238133
     21 H13         -0.3340    -0.8100     0.4850 hn         1 01H       0.230467
     22 H73          5.6960    -0.8250     4.7190 hn         1 01H       0.238133
@<TRIPOS>BOND
     1     1     2 1   
     2     1     8 1   
     3     1     9 1   
     4     1    21 1   
     5     2     3 1   
     6     2    10 1   
     7     2    11 1   
     8     3     4 1   
     9     3    12 1   
    10     3    13 1   
    11     4     5 1   
    12     4    14 1   
    13     4    15 1   
    14     5     6 1   
    15     5    16 1   
    16     5    17 1   
    17     6     7 1   
    18     6    18 1   
    19     7    19 1   
    20     7    20 1   
    21     7    22 1   
@<TRIPOS>SUBSTRUCTURE
     1 01H         1 TEMP              0 ****  ****    0 ROOT
