@<TRIPOS>MOLECULE
molecule
   25    25     1     0     0
SMALL
bcc


@<TRIPOS>ATOM
      1 N            0.0000     0.0000     0.0000 n2         1 01O      -0.669100
      2 C            1.3060     0.0000     0.0000 ce         1 01O       0.537800
      3 N1           1.9970     0.0000     1.1940 nz         1 01O      -0.751600
      4 C1           2.0410     0.0010    -1.2760 cc         1 01O      -0.256200
      5 N2           3.4070     0.0270    -1.4230 na         1 01O      -0.035100
      6 C2           4.3850     0.0600    -0.3320 c3         1 01O       0.006600
      7 C3           3.7010     0.0170    -2.7490 cc         1 01O      -0.033300
      8 C4           1.4880    -0.0290    -2.5240 cd         1 01O      -0.092000
      9 C5           2.5420    -0.0140    -3.4460 cd         1 01O      -0.267300
     10 C6           2.4080    -0.0330    -4.9480 c3         1 01O       0.193100
     11 N3           2.3930    -1.4250    -5.4190 nz         1 01O      -0.812600
     12 H           -0.5020     0.0000    -0.8660 hn         1 01O       0.485400
     13 H11A         2.5570     0.8270     1.2560 hn         1 01O       0.481467
     14 H12          1.3470    -0.0200     1.9550 hn         1 01O       0.481467
     15 H21          5.3860     0.0860    -0.7450 h1         1 01O       0.077033
     16 H22          4.2210     0.9430     0.2730 h1         1 01O       0.077033
     17 H23          4.2710    -0.8250     0.2820 h1         1 01O       0.077033
     18 H3           4.6960     0.0340    -3.1770 h4         1 01O       0.207000
     19 H4           0.4310    -0.0540    -2.7570 ha         1 01O       0.177000
     20 H61          3.2470     0.4890    -5.3920 hx         1 01O       0.125200
     21 H62          1.4850     0.4550    -5.2350 hx         1 01O       0.125200
     22 HN3          1.6210    -1.9090    -5.0050 hn         1 01O       0.461467
     23 H2           3.2480    -1.8750    -5.1570 hn         1 01O       0.461467
     24 H13          2.5850    -0.8090     1.2400 hn         1 01O       0.481467
     25 H33          2.2890    -1.4390    -6.4140 hn         1 01O       0.461467
@<TRIPOS>BOND
     1     1     2 2
     2     1    12 1
     3     2     3 1
     4     2     4 1
     5     3    13 1
     6     3    14 1
     7     4     5 1
     8     4     8 2
     9     5     6 1
    10     5     7 1
    11     6    15 1
    12     6    16 1
    13     6    17 1
    14     7     9 2
    15     7    18 1
    16     8     9 1
    17     8    19 1
    18     9    10 1
    19    10    11 1
    20    10    20 1
    21    10    21 1
    22    11    22 1
    23    11    23 1
    24    24     3 1
    25    25    11 1
@<TRIPOS>SUBSTRUCTURE
     1 01O         1 TEMP              0 ****  ****    0 ROOT
