@<TRIPOS>MOLECULE
01O
   25    25     1     0     0
SMALL
bcc


@<TRIPOS>ATOM
      1 N            0.0000     0.0000     0.0000 n2         1 01O      -0.424100
      2 C            1.3060     0.0000     0.0000 ce         1 01O       0.228800
      3 N1           1.9970     0.0000     1.1940 nz         1 01O       0.161400
      4 C1           2.0410     0.0010    -1.2760 cc         1 01O      -0.425200
      5 N2           3.4070     0.0270    -1.4230 na         1 01O       0.472900
      6 C2           4.3850     0.0600    -0.3320 c3         1 01O      -0.045400
      7 C3           3.7010     0.0170    -2.7490 cc         1 01O      -0.192300
      8 C4           1.4880    -0.0290    -2.5240 cd         1 01O      -0.052000
      9 C5           2.5420    -0.0140    -3.4460 cd         1 01O      -0.272300
     10 C6           2.4080    -0.0330    -4.9480 c3         1 01O       0.079100
     11 N3           2.3930    -1.4250    -5.4190 nz         1 01O       0.078400
     12 H           -0.5020     0.0000    -0.8660 hn         1 01O       0.376400
     13 H11A         2.5570     0.8270     1.2560 hn         1 01O       0.233133
     14 H12          1.3470    -0.0200     1.9550 hn         1 01O       0.233133
     15 H21          5.3860     0.0860    -0.7450 h1         1 01O       0.045033
     16 H22          4.2210     0.9430     0.2730 h1         1 01O       0.045033
     17 H23          4.2710    -0.8250     0.2820 h1         1 01O       0.045033
     18 H3           4.6960     0.0340    -3.1770 h4         1 01O       0.174000
     19 H4           0.4310    -0.0540    -2.7570 ha         1 01O       0.145000
     20 H61          3.2470     0.4890    -5.3920 hx         1 01O       0.089200
     21 H62          1.4850     0.4550    -5.2350 hx         1 01O       0.089200
     22 HN3          1.6210    -1.9090    -5.0050 hn         1 01O       0.227800
     23 H2           3.2480    -1.8750    -5.1570 hn         1 01O       0.227800
     24 H13          2.5850    -0.8090     1.2400 hn         1 01O       0.233133
     25 H33          2.2890    -1.4390    -6.4140 hn         1 01O       0.227800
@<TRIPOS>BOND
     1     1     2 2   
     2     1    12 1   
     3     2     3 1   
     4     2     4 1   
     5     3    13 1   
     6     3    14 1   
     7     3    24 1   
     8     4     5 1   
     9     4     8 2   
    10     5     6 1   
    11     5     7 1   
    12     6    15 1   
    13     6    16 1   
    14     6    17 1   
    15     7     9 2   
    16     7    18 1   
    17     8     9 1   
    18     8    19 1   
    19     9    10 1   
    20    10    11 1   
    21    10    20 1   
    22    10    21 1   
    23    11    22 1   
    24    11    23 1   
    25    11    25 1   
@<TRIPOS>SUBSTRUCTURE
     1 01O         1 TEMP              0 ****  ****    0 ROOT
