@<TRIPOS>MOLECULE
01O
   25    25     1     0     0
SMALL
bcc


@<TRIPOS>ATOM
      1 N            0.8150     1.4220     0.3620 n2         1 01O      -0.663100
      2 C            1.3600     0.3520    -0.0690 ce         1 01O       0.598800
      3 N1           1.2040    -0.8750     0.7890 nz         1 01O      -0.822600
      4 C1           2.1690     0.1120    -1.2700 cc         1 01O      -0.311200
      5 N2           1.7420    -0.6350    -2.3870 na         1 01O      -0.013100
      6 C2           0.4900    -1.3260    -2.5110 c3         1 01O      -0.018400
      7 C3           2.6960    -0.5220    -3.3720 cc         1 01O      -0.028300
      8 C4           3.4210     0.6850    -1.5630 cd         1 01O      -0.061000
      9 C5           3.7610     0.2860    -2.8960 cd         1 01O      -0.282300
     10 C6           4.8950     0.7730    -3.6910 c3         1 01O       0.204100
     11 N3           6.1030    -0.1160    -3.6110 nz         1 01O      -0.845600
     12 H            0.8760     2.2660    -0.1720 hn         1 01O       0.503400
     13 H11A         0.7300    -1.6010     0.2420 hn         1 01O       0.477467
     14 H12          2.1360    -1.2070     1.0620 hn         1 01O       0.477467
     15 H21          0.2280    -1.4480    -3.5990 h1         1 01O       0.088367
     16 H22          0.5660    -2.3460    -2.0450 h1         1 01O       0.088367
     17 H23         -0.3260    -0.7360    -2.0120 h1         1 01O       0.088367
     18 H3           2.5690    -1.0000    -4.3520 h4         1 01O       0.211000
     19 H4           4.0060     1.3280    -0.9060 ha         1 01O       0.186000
     20 H61          4.6110     0.8470    -4.7840 hx         1 01O       0.125200
     21 H62          5.2140     1.7980    -3.3310 hx         1 01O       0.125200
     22 HN3          6.8600     0.2770    -4.1840 hn         1 01O       0.464133
     23 H2           6.4270    -0.1940    -2.6420 hn         1 01O       0.464133
     24 H13          0.6540    -0.6780     1.6400 hn         1 01O       0.477467
     25 H33          5.8810    -1.0560    -3.9550 hn         1 01O       0.464133
@<TRIPOS>BOND
     1     1     2 2   
     2     1    12 1   
     3     2     3 1   
     4     2     4 1   
     5     3    13 1   
     6     3    14 1   
     7     3    24 1   
     8     4     5 1   
     9     4     8 2   
    10     5     6 1   
    11     5     7 1   
    12     6    15 1   
    13     6    16 1   
    14     6    17 1   
    15     7     9 2   
    16     7    18 1   
    17     8     9 1   
    18     8    19 1   
    19     9    10 1   
    20    10    11 1   
    21    10    20 1   
    22    10    21 1   
    23    11    22 1   
    24    11    23 1   
    25    11    25 1   
@<TRIPOS>SUBSTRUCTURE
     1 01O         1 TEMP              0 ****  ****    0 ROOT
