@<TRIPOS>MOLECULE
01P
   56    60     1     0     0
SMALL
bcc


@<TRIPOS>ATOM
      1 C1           0.0000     0.0000     0.0000 ca         1 01P      -0.480600
      2 N1           7.6410    -0.4490     3.3940 nh         1 01P      -0.351000
      3 O1          10.1870    -0.3300     2.2130 os         1 01P      -0.413600
      4 C2           9.7920     0.6890     3.1350 c3         1 01P       0.214400
      5 N2          -2.0520    -0.0000     1.2750 nu         1 01P      -0.289300
      6 O2           6.3740     1.0570     5.3510 os         1 01P      -0.296900
      7 C3           8.2700     0.8460     3.0940 c3         1 01P       0.091800
      8 N3          -4.5770    -0.4290     3.8490 nb         1 01P      -0.549000
      9 C4           1.3700     0.0000     2.3050 ca         1 01P       0.739900
     10 N4           2.0290     0.0000     1.1560 nb         1 01P      -0.728000
     11 C5           8.0690    -1.4720     2.4280 c3         1 01P       0.091800
     12 N5           0.0470     0.0010     2.3480 nb         1 01P      -0.749000
     13 C6           9.5940    -1.6050     2.4750 c3         1 01P       0.214400
     14 N6           2.0840     0.0010     3.4920 nu         1 01P      -0.284300
     15 C7          -2.3450     1.7010     5.8180 ca         1 01P      -0.087000
     16 C8          -3.0510     1.7640     6.9800 ca         1 01P      -0.094000
     17 C9          -4.2690     1.0990     7.1130 ca         1 01P      -0.101000
     18 C10         -4.7870     0.3700     6.0880 ca         1 01P      -0.133300
     19 C11          4.1000    -0.8670     2.4840 ca         1 01P      -0.122000
     20 C12          3.4810    -0.1110     3.4700 ca         1 01P       0.021600
     21 C13          4.2450     0.5360     4.4330 ca         1 01P      -0.228000
     22 C14          5.6250     0.4240     4.4090 ca         1 01P       0.158100
     23 C15          6.2440    -0.3360     3.4200 ca         1 01P      -0.031400
     24 C16          5.4780    -0.9800     2.4590 ca         1 01P      -0.108000
     25 C17          5.6720     1.8190     6.3350 c3         1 01P       0.239700
     26 C18         -2.7090     0.1180     2.5040 ca         1 01P      -0.131700
     27 C19         -2.1500     0.8680     3.5220 ca         1 01P      -0.054000
     28 C20         -2.8500     0.9570     4.7380 ca         1 01P      -0.130300
     29 C21         -4.0890     0.2810     4.8710 ca         1 01P       0.355600
     30 C22         -3.9370    -0.5220     2.7100 ca         1 01P       0.386200
     31 C23          1.3800     0.0000     0.0000 ca         1 01P       0.526200
     32 C24         -0.6670    -0.0000     1.2270 ca         1 01P       0.562200
     33 H1          -0.5540    -0.0000    -0.9310 ha         1 01P       0.128000
     34 H2          10.2580     1.6270     2.8580 h1         1 01P       0.012700
     35 H2A         10.0990     0.4090     4.1350 h1         1 01P       0.012700
     36 HN2         -2.5820    -0.0580     0.4280 hn         1 01P       0.289800
     37 H3           7.9670     1.1730     2.1070 h1         1 01P       0.027200
     38 H3A          7.9620     1.5760     3.8330 h1         1 01P       0.027200
     39 H5           7.6160    -2.4220     2.6840 h1         1 01P       0.027200
     40 H5A          7.7630    -1.1760     1.4310 h1         1 01P       0.027200
     41 H6           9.9170    -2.3150     1.7230 h1         1 01P       0.012700
     42 H6A          9.8960    -1.9480     3.4570 h1         1 01P       0.012700
     43 HN6          1.6000     0.0460     4.3670 hn         1 01P       0.291800
     44 H7          -1.4000     2.2210     5.7260 ha         1 01P       0.106000
     45 H8          -2.6620     2.3380     7.8120 ha         1 01P       0.102000
     46 H9          -4.8120     1.1650     8.0480 ha         1 01P       0.103000
     47 H10         -5.7350    -0.1400     6.2090 ha         1 01P       0.116000
     48 H11          3.5030    -1.3710     1.7330 ha         1 01P       0.139000
     49 H13          3.7590     1.0740     5.2380 ha         1 01P       0.124000
     50 H16          5.9590    -1.5710     1.6890 ha         1 01P       0.123000
     51 H17          5.0190     1.1650     6.9000 h1         1 01P      -0.002967
     52 H17A         5.0820     2.5840     5.8460 h1         1 01P      -0.002967
     53 H17B         6.3840     2.2850     7.0060 h1         1 01P      -0.002967
     54 H19         -1.3530     1.5690     3.3030 ha         1 01P       0.131000
     55 H22         -4.3680    -1.1090     1.9080 h4         1 01P      -0.021900
     56 H23          1.9280    -0.0000    -0.9350 h4         1 01P      -0.019900
@<TRIPOS>BOND
     1     1    31 ar  
     2     1    32 ar  
     3     1    33 1   
     4     2     7 1   
     5     2    11 1   
     6     2    23 1   
     7     3     4 1   
     8     3    13 1   
     9     4     7 1   
    10     4    34 1   
    11     4    35 1   
    12     5    26 1   
    13     5    32 1   
    14     5    36 1   
    15     6    22 1   
    16     6    25 1   
    17     7    37 1   
    18     7    38 1   
    19     8    29 ar  
    20     8    30 ar  
    21     9    10 ar  
    22     9    12 ar  
    23     9    14 1   
    24    10    31 ar  
    25    11    13 1   
    26    11    39 1   
    27    11    40 1   
    28    12    32 ar  
    29    13    41 1   
    30    13    42 1   
    31    14    20 1   
    32    14    43 1   
    33    15    16 ar  
    34    15    28 ar  
    35    15    44 1   
    36    16    17 ar  
    37    16    45 1   
    38    17    18 ar  
    39    17    46 1   
    40    18    29 ar  
    41    18    47 1   
    42    19    20 ar  
    43    19    24 ar  
    44    19    48 1   
    45    20    21 ar  
    46    21    22 ar  
    47    21    49 1   
    48    22    23 ar  
    49    23    24 ar  
    50    24    50 1   
    51    25    51 1   
    52    25    52 1   
    53    25    53 1   
    54    26    27 ar  
    55    26    30 ar  
    56    27    28 ar  
    57    27    54 1   
    58    28    29 ar  
    59    30    55 1   
    60    31    56 1   
@<TRIPOS>SUBSTRUCTURE
     1 01P         1 TEMP              0 ****  ****    0 ROOT
