@<TRIPOS>MOLECULE
01P
   56    60     1     0     0
SMALL
bcc


@<TRIPOS>ATOM
      1 C1           0.0970    -0.2890     0.0550 ca         1 01P      -0.470600
      2 N1           0.2430     0.6630     8.9280 nh         1 01P      -0.616000
      3 O1          -0.6270     0.1060    11.6000 os         1 01P      -0.417600
      4 C2          -1.5320     0.6700    10.6560 c3         1 01P       0.125400
      5 N2          -2.0030    -0.3680     1.2570 nu         1 01P      -0.729300
      6 O2          -0.9880     2.1390     6.9220 os         1 01P      -0.322900
      7 C3          -1.1450     0.3200     9.2130 c3         1 01P       0.147300
      8 N3          -5.0030     0.5920     3.1790 nb         1 01P      -0.643000
      9 C4           1.4140     0.1150     2.4160 ca         1 01P       0.904900
     10 N4           2.1790    -0.0180     1.2560 nb         1 01P      -0.772000
     11 C5           1.1550     0.1210     9.9240 c3         1 01P       0.147300
     12 N5           0.0360     0.0210     2.4780 nb         1 01P      -0.789000
     13 C6           0.7190     0.4930    11.3480 c3         1 01P       0.125400
     14 N6           2.1380     0.4190     3.5820 nu         1 01P      -0.717300
     15 C7          -3.4420    -1.5150     5.8370 ca         1 01P      -0.110000
     16 C8          -4.4030    -1.4270     6.8140 ca         1 01P      -0.125000
     17 C9          -5.5740    -0.6620     6.5990 ca         1 01P      -0.128000
     18 C10         -5.7730     0.0020     5.4150 ca         1 01P      -0.161300
     19 C11          2.1540    -0.4040     5.8800 ca         1 01P      -0.177000
     20 C12          1.5780     0.4000     4.8780 ca         1 01P       0.148600
     21 C13          0.5120     1.2520     5.2250 ca         1 01P      -0.173000
     22 C14          0.0540     1.3130     6.5420 ca         1 01P       0.125100
     23 C15          0.6410     0.5150     7.5740 ca         1 01P       0.099600
     24 C16          1.6870    -0.3440     7.1870 ca         1 01P      -0.141000
     25 C17         -1.4980     3.0260     5.9330 c3         1 01P       0.110700
     26 C18         -2.8550    -0.2640     2.3690 ca         1 01P       0.016300
     27 C19         -2.6390    -0.9280     3.5660 ca         1 01P      -0.082000
     28 C20         -3.6130    -0.8430     4.5990 ca         1 01P      -0.128300
     29 C21         -4.7940    -0.0720     4.3740 ca         1 01P       0.374600
     30 C22         -4.0860     0.4980     2.2420 ca         1 01P       0.385200
     31 C23          1.4920    -0.2040     0.1220 ca         1 01P       0.487200
     32 C24         -0.6140    -0.1920     1.2930 ca         1 01P       0.710200
     33 H1          -0.4150    -0.4430    -0.9000 ha         1 01P       0.153000
     34 H2          -2.5220     0.2100    10.9090 h1         1 01P       0.054950
     35 H2A         -1.5740     1.7830    10.7960 h1         1 01P       0.054950
     36 HN2         -2.4210    -0.1450     0.3790 hn         1 01P       0.436800
     37 H3          -1.3310    -0.7810     9.0500 h1         1 01P       0.049200
     38 H3A         -1.8110     0.8990     8.5140 h1         1 01P       0.049200
     39 H5           2.1790     0.5470     9.7370 h1         1 01P       0.049200
     40 H5A          1.2200    -1.0050     9.8640 h1         1 01P       0.049200
     41 H6           0.8330     1.5950    11.5240 h1         1 01P       0.054950
     42 H6A          1.3220    -0.0840    12.0960 h1         1 01P       0.054950
     43 HN6          3.1120     0.1960     3.5450 hn         1 01P       0.447800
     44 H7          -2.5250    -2.1040     5.9950 ha         1 01P       0.139000
     45 H8          -4.2740    -1.9490     7.7740 ha         1 01P       0.135000
     46 H9          -6.3270    -0.6080     7.3990 ha         1 01P       0.136000
     47 H10         -6.6850     0.5970     5.2480 ha         1 01P       0.149000
     48 H11          2.9840    -1.0870     5.6430 ha         1 01P       0.134000
     49 H13          0.0440     1.8770     4.4490 ha         1 01P       0.159000
     50 H16          2.1700    -0.9990     7.9310 ha         1 01P       0.137000
     51 H17         -0.6940     3.6990     5.5480 h1         1 01P       0.047033
     52 H17A        -1.9700     2.4550     5.0960 h1         1 01P       0.047033
     53 H17B        -2.2700     3.6140     6.4920 h1         1 01P       0.047033
     54 H19         -1.7300    -1.5220     3.7480 ha         1 01P       0.162000
     55 H22         -4.3010     1.0440     1.3030 h4         1 01P       0.018100
     56 H23          2.1060    -0.2940    -0.7940 h4         1 01P       0.027100
@<TRIPOS>BOND
     1     1    31 ar  
     2     1    32 ar  
     3     1    33 1   
     4     2     7 1   
     5     2    11 1   
     6     2    23 1   
     7     3     4 1   
     8     3    13 1   
     9     4     7 1   
    10     4    34 1   
    11     4    35 1   
    12     5    26 1   
    13     5    32 1   
    14     5    36 1   
    15     6    22 1   
    16     6    25 1   
    17     7    37 1   
    18     7    38 1   
    19     8    29 ar  
    20     8    30 ar  
    21     9    10 ar  
    22     9    12 ar  
    23     9    14 1   
    24    10    31 ar  
    25    11    13 1   
    26    11    39 1   
    27    11    40 1   
    28    12    32 ar  
    29    13    41 1   
    30    13    42 1   
    31    14    20 1   
    32    14    43 1   
    33    15    16 ar  
    34    15    28 ar  
    35    15    44 1   
    36    16    17 ar  
    37    16    45 1   
    38    17    18 ar  
    39    17    46 1   
    40    18    29 ar  
    41    18    47 1   
    42    19    20 ar  
    43    19    24 ar  
    44    19    48 1   
    45    20    21 ar  
    46    21    22 ar  
    47    21    49 1   
    48    22    23 ar  
    49    23    24 ar  
    50    24    50 1   
    51    25    51 1   
    52    25    52 1   
    53    25    53 1   
    54    26    27 ar  
    55    26    30 ar  
    56    27    28 ar  
    57    27    54 1   
    58    28    29 ar  
    59    30    55 1   
    60    31    56 1   
@<TRIPOS>SUBSTRUCTURE
     1 01P         1 TEMP              0 ****  ****    0 ROOT
