@<TRIPOS>MOLECULE
01Q
   25    25     1     0     0
SMALL
bcc


@<TRIPOS>ATOM
      1 N           -0.1070    -0.2040     0.0290 n2         1 01Q      -0.675100
      2 C            1.1520    -0.0090    -0.0610 ce         1 01Q       0.596800
      3 N1           1.9130     0.0830     1.2320 nz         1 01Q      -0.815600
      4 C1           2.0320     0.1000    -1.2340 cc         1 01Q      -0.257200
      5 N2           1.7500     0.8940    -2.3510 na         1 01Q      -0.001100
      6 C2           0.5930     1.7240    -2.5230 c3         1 01Q      -0.017400
      7 C3           3.2140    -0.6380    -1.4760 cd         1 01Q      -0.120000
      8 C4           3.6490    -0.3070    -2.7880 cd         1 01Q      -0.131000
      9 C5           2.7280     0.6290    -3.3150 cc         1 01Q      -0.179600
     10 C6           2.7420     1.1650    -4.6980 c3         1 01Q       0.186100
     11 N3           3.9320     2.0380    -4.9510 nz         1 01Q      -0.842600
     12 H           -0.6550    -0.2990    -0.8020 hn         1 01Q       0.493400
     13 H11A         1.3020    -0.1080     2.0430 hn         1 01Q       0.482467
     14 H12          2.3060     1.0260     1.3210 hn         1 01Q       0.482467
     15 H21          0.2530     2.1210    -1.5290 h1         1 01Q       0.085700
     16 H22          0.8420     2.5990    -3.1820 h1         1 01Q       0.085700
     17 H23         -0.2430     1.1360    -2.9970 h1         1 01Q       0.085700
     18 H3           3.6890    -1.3570    -0.8100 ha         1 01Q       0.187000
     19 H4           4.5150    -0.7280    -3.3000 ha         1 01Q       0.190000
     20 H61          2.8030     0.2930    -5.4220 hx         1 01Q       0.134200
     21 H62          1.8150     1.7640    -4.9420 hx         1 01Q       0.134200
     22 HN3          4.7970     1.5350    -4.7160 hn         1 01Q       0.470800
     23 H2           3.8890     2.8890    -4.3800 hn         1 01Q       0.470800
     24 H13          2.6750    -0.6050     1.2130 hn         1 01Q       0.482467
     25 H33          3.9610     2.3040    -5.9440 hn         1 01Q       0.470800
@<TRIPOS>BOND
     1     1     2 2   
     2     1    12 1   
     3     2     3 1   
     4     2     4 1   
     5     3    13 1   
     6     3    14 1   
     7     3    24 1   
     8     4     5 1   
     9     4     7 2   
    10     5     6 1   
    11     5     9 1   
    12     6    15 1   
    13     6    16 1   
    14     6    17 1   
    15     7     8 1   
    16     7    18 1   
    17     8     9 2   
    18     8    19 1   
    19     9    10 1   
    20    10    11 1   
    21    10    20 1   
    22    10    21 1   
    23    11    22 1   
    24    11    23 1   
    25    11    25 1   
@<TRIPOS>SUBSTRUCTURE
     1 01Q         1 TEMP              0 ****  ****    0 ROOT
