@<TRIPOS>MOLECULE
01Q
   25    25     1     0     0
SMALL
bcc


@<TRIPOS>ATOM
      1 N            0.0000     0.0000     0.0000 n2         1 01Q      -0.382100
      2 C            1.3060     0.0000     0.0000 ce         1 01Q       0.230800
      3 N1           1.9950     0.0000     1.1960 nz         1 01Q       0.098400
      4 C1           2.0430    -0.0000    -1.2740 cc         1 01Q      -0.364200
      5 N2           3.4090     0.0250    -1.4200 na         1 01Q       0.417900
      6 C2           4.3850     0.0560    -0.3280 c3         1 01Q      -0.041400
      7 C3           1.4910    -0.0320    -2.5230 cd         1 01Q      -0.019000
      8 C4           2.5460    -0.0190    -3.4450 cd         1 01Q      -0.083000
      9 C5           3.7030     0.0160    -2.7460 cc         1 01Q      -0.371600
     10 C6           5.0880     0.0370    -3.3400 c3         1 01Q       0.075100
     11 N3           5.5580     1.4250    -3.4370 nz         1 01Q       0.075400
     12 H           -0.5010     0.0000     0.8660 hn         1 01Q       0.352400
     13 H11A         2.5640     0.8220     1.2540 hn         1 01Q       0.234467
     14 H12          2.5780    -0.8130     1.2460 hn         1 01Q       0.234467
     15 H21          4.2210    -0.7900     0.3280 h1         1 01Q       0.032367
     16 H22          4.2690     0.9760     0.2330 h1         1 01Q       0.032367
     17 H23          5.3860     0.0070    -0.7370 h1         1 01Q       0.032367
     18 H3           0.4340    -0.0590    -2.7580 ha         1 01Q       0.172000
     19 H4           2.4510    -0.0360    -4.5240 ha         1 01Q       0.160000
     20 H61          5.0640    -0.4070    -4.3280 hx         1 01Q       0.093700
     21 H62          5.7610    -0.5290    -2.7070 hx         1 01Q       0.093700
     22 HN3          5.6130     1.8240    -2.5200 hn         1 01Q       0.229800
     23 H2           4.9180     1.9560    -3.9930 hn         1 01Q       0.229800
     24 H13          1.3450    -0.0200     1.9560 hn         1 01Q       0.234467
     25 H33          6.4640     1.4420    -3.8620 hn         1 01Q       0.229800
@<TRIPOS>BOND
     1     1     2 2   
     2     1    12 1   
     3     2     3 1   
     4     2     4 1   
     5     3    13 1   
     6     3    14 1   
     7     3    24 1   
     8     4     5 1   
     9     4     7 2   
    10     5     6 1   
    11     5     9 1   
    12     6    15 1   
    13     6    16 1   
    14     6    17 1   
    15     7     8 1   
    16     7    18 1   
    17     8     9 2   
    18     8    19 1   
    19     9    10 1   
    20    10    11 1   
    21    10    20 1   
    22    10    21 1   
    23    11    22 1   
    24    11    23 1   
    25    11    25 1   
@<TRIPOS>SUBSTRUCTURE
     1 01Q         1 TEMP              0 ****  ****    0 ROOT
