@<TRIPOS>MOLECULE
molecule
   25    25     1     0     0
SMALL
bcc


@<TRIPOS>ATOM
      1 N            0.0000     0.0000     0.0000 n2         1 01Q      -0.655100
      2 C            1.3060     0.0000     0.0000 ce         1 01Q       0.525800
      3 N1           1.9950     0.0000     1.1960 nz         1 01Q      -0.751600
      4 C1           2.0430    -0.0000    -1.2740 cc         1 01Q      -0.227200
      5 N2           3.4090     0.0250    -1.4200 na         1 01Q      -0.061100
      6 C2           4.3850     0.0560    -0.3280 c3         1 01Q       0.004600
      7 C3           1.4910    -0.0320    -2.5230 cd         1 01Q      -0.098000
      8 C4           2.5460    -0.0190    -3.4450 cd         1 01Q      -0.114000
      9 C5           3.7030     0.0160    -2.7460 cc         1 01Q      -0.175600
     10 C6           5.0880     0.0370    -3.3400 c3         1 01Q       0.184100
     11 N3           5.5580     1.4250    -3.4370 nz         1 01Q      -0.814600
     12 H           -0.5020    -0.0000    -0.8660 hn         1 01Q       0.494400
     13 H11A         1.3450    -0.0380     1.9550 hn         1 01Q       0.478800
     14 H12          2.5990    -0.7970     1.2330 hn         1 01Q       0.478800
     15 H21          4.2330    -0.8010     0.3170 h1         1 01Q       0.066700
     16 H22          4.2560     0.9660     0.2460 h1         1 01Q       0.066700
     17 H23          5.3870     0.0270    -0.7380 h1         1 01Q       0.066700
     18 H3           0.4340    -0.0590    -2.7580 ha         1 01Q       0.195000
     19 H4           2.4510    -0.0360    -4.5240 ha         1 01Q       0.197000
     20 H61          5.7610    -0.5290    -2.7070 hx         1 01Q       0.132200
     21 H62          5.0640    -0.4070    -4.3280 hx         1 01Q       0.132200
     22 HN3          6.4000     1.4550    -3.9770 hn         1 01Q       0.465133
     23 H2           4.8570     1.9840    -3.8810 hn         1 01Q       0.465133
     24 H13          2.5320     0.8410     1.2720 hn         1 01Q       0.478800
     25 H33          5.7420     1.7800    -2.5190 hn         1 01Q       0.465133
@<TRIPOS>BOND
     1     1     2 2
     2     1    12 1
     3     2     3 1
     4     2     4 1
     5     3    13 1
     6     3    14 1
     7     4     5 1
     8     4     7 2
     9     5     6 1
    10     5     9 1
    11     6    15 1
    12     6    16 1
    13     6    17 1
    14     7     8 1
    15     7    18 1
    16     8     9 2
    17     8    19 1
    18     9    10 1
    19    10    11 1
    20    10    20 1
    21    10    21 1
    22    11    22 1
    23    11    23 1
    24    24     3 1
    25    25    11 1
@<TRIPOS>SUBSTRUCTURE
     1 01Q         1 TEMP              0 ****  ****    0 ROOT
