@<TRIPOS>MOLECULE
molecule
   22    22     1     0     0
SMALL
bcc


@<TRIPOS>ATOM
      1 N19          0.0000     0.0000     0.0000 nz         1 01R      -0.806600
      2 C20          1.4690     0.0000     0.0000 c3         1 01R       0.072800
      3 C30          1.9790     0.0000     1.4420 c3         1 01R       0.228800
      4 N27          3.4440     0.0000     1.4420 nu         1 01R      -0.829600
      5 C21          4.1400    -0.0010     2.6480 ca         1 01R       0.236600
      6 C22          5.5340     0.0000     2.6690 ca         1 01R      -0.339800
      7 C23          6.1850     0.0000     3.8850 ca         1 01R       0.465700
      8 N24          5.5060    -0.0020     5.0170 nb         1 01R      -0.706000
      9 C25          4.1870    -0.0020     5.0380 ca         1 01R       0.465700
     10 C26          3.4610     0.0040     3.8660 ca         1 01R      -0.339800
     11 H19         -0.3340    -0.0000    -0.9440 hn         1 01R       0.461800
     12 H201         1.8300    -0.8850    -0.5110 hx         1 01R       0.118700
     13 H202         1.8300     0.8850    -0.5110 hx         1 01R       0.118700
     14 H301         1.6180    -0.8850     1.9530 h1         1 01R       0.058200
     15 H302         1.6180     0.8840     1.9530 h1         1 01R       0.058200
     16 H27          3.9440     0.0110     0.5760 hn         1 01R       0.449800
     17 H22          6.0890    -0.1830     1.7570 ha         1 01R       0.146500
     18 H23          7.2680     0.0020     3.9110 h4         1 01R       0.035600
     19 H25          3.6670    -0.0070     5.9890 h4         1 01R       0.035600
     20 H26          2.4550     0.0250     4.2670 ha         1 01R       0.146500
     21 H2          -0.3340     0.8170     0.4720 hn         1 01R       0.461800
     22 H193        -0.3340    -0.8170     0.4720 hn         1 01R       0.461800
@<TRIPOS>BOND
     1     1     2 1   
     2     1    11 1   
     3     2     3 1   
     4     2    12 1   
     5     2    13 1   
     6     3     4 1   
     7     3    14 1   
     8     3    15 1   
     9     4     5 1   
    10     4    16 1   
    11     5     6 ar  
    12     5    10 ar  
    13     6     7 ar  
    14     6    17 1   
    15     7     8 ar  
    16     7    18 1   
    17     8     9 ar  
    18     9    10 ar  
    19     9    19 1   
    20    10    20 1   
    21     1    21 1   
    22    22     1 1   
@<TRIPOS>SUBSTRUCTURE
     1 01R         1 TEMP              0 ****  ****    0 ROOT
