@<TRIPOS>MOLECULE
01R
   22    22     1     0     0
SMALL
bcc


@<TRIPOS>ATOM
      1 N19          0.0000     0.0000     0.0000 nz         1 01R       0.097400
      2 C20          1.4690     0.0000     0.0000 c3         1 01R      -0.066200
      3 C30          1.9790     0.0000     1.4420 c3         1 01R       0.176800
      4 N27          3.4440     0.0000     1.4420 nu         1 01R      -0.433600
      5 C21          4.1400    -0.0010     2.6480 ca         1 01R       0.098600
      6 C22          5.5340     0.0000     2.6690 ca         1 01R      -0.315300
      7 C23          6.1850     0.0000     3.8850 ca         1 01R       0.454700
      8 N24          5.5060    -0.0020     5.0170 nb         1 01R      -0.598000
      9 C25          4.1870    -0.0020     5.0380 ca         1 01R       0.454700
     10 C26          3.4610     0.0040     3.8660 ca         1 01R      -0.315300
     11 H19         -0.3340    -0.0000    -0.9440 hn         1 01R       0.225467
     12 H201         1.8300    -0.8850    -0.5110 hx         1 01R       0.089700
     13 H202         1.8300     0.8850    -0.5110 hx         1 01R       0.089700
     14 H301         1.6180    -0.8850     1.9530 h1         1 01R       0.026700
     15 H302         1.6180     0.8840     1.9530 h1         1 01R       0.026700
     16 H27          3.9440     0.0110     0.5760 hn         1 01R       0.303800
     17 H22          6.0890    -0.1830     1.7570 ha         1 01R       0.128500
     18 H23          7.2680     0.0020     3.9110 h4         1 01R      -0.012900
     19 H25          3.6670    -0.0070     5.9890 h4         1 01R      -0.012900
     20 H26          2.4550     0.0250     4.2670 ha         1 01R       0.128500
     21 H2          -0.3340     0.8170     0.4720 hn         1 01R       0.225467
     22 H193        -0.3340    -0.8170     0.4720 hn         1 01R       0.225467
@<TRIPOS>BOND
     1     1     2 1   
     2     1    11 1   
     3     1    21 1   
     4     1    22 1   
     5     2     3 1   
     6     2    12 1   
     7     2    13 1   
     8     3     4 1   
     9     3    14 1   
    10     3    15 1   
    11     4     5 1   
    12     4    16 1   
    13     5     6 ar  
    14     5    10 ar  
    15     6     7 ar  
    16     6    17 1   
    17     7     8 ar  
    18     7    18 1   
    19     8     9 ar  
    20     9    10 ar  
    21     9    19 1   
    22    10    20 1   
@<TRIPOS>SUBSTRUCTURE
     1 01R         1 TEMP              0 ****  ****    0 ROOT
