@<TRIPOS>MOLECULE
01R
   22    22     1     0     0
SMALL
bcc


@<TRIPOS>ATOM
      1 N19          0.1960     0.4130     1.0530 nz         1 01R      -0.831600
      2 C20          1.2720    -0.2240     0.2450 c3         1 01R       0.085800
      3 C30          2.7000     0.0610     0.7790 c3         1 01R       0.170800
      4 N27          2.8560     1.4120     1.2360 nu         1 01R      -0.776600
      5 C21          2.7970     1.7030     2.6120 ca         1 01R       0.146600
      6 C22          3.2280     2.9720     3.0690 ca         1 01R      -0.324300
      7 C23          3.0580     3.2930     4.4240 ca         1 01R       0.446700
      8 N24          2.5090     2.4620     5.3310 nb         1 01R      -0.655000
      9 C25          2.1220     1.2510     4.8960 ca         1 01R       0.446700
     10 C26          2.2370     0.8200     3.5620 ca         1 01R      -0.324300
     11 H19          0.2110     1.4310     0.9100 hn         1 01R       0.465800
     12 H201         1.1750     0.1610    -0.8110 hx         1 01R       0.111200
     13 H202         1.1070    -1.3390     0.2460 hx         1 01R       0.111200
     14 H301         2.9400    -0.6960     1.5810 h1         1 01R       0.091200
     15 H302         3.3940    -0.1400    -0.0900 h1         1 01R       0.091200
     16 H27          3.5530     1.9350     0.7440 hn         1 01R       0.439800
     17 H22          3.6930     3.7000     2.3890 ha         1 01R       0.142500
     18 H23          3.3870     4.2780     4.8110 h4         1 01R       0.044600
     19 H25          1.6980     0.5770     5.6660 h4         1 01R       0.044600
     20 H26          1.9610    -0.2140     3.3210 ha         1 01R       0.142500
     21 H2          -0.7200     0.0500     0.7760 hn         1 01R       0.465800
     22 H193         0.3510     0.2340     2.0540 hn         1 01R       0.465800
@<TRIPOS>BOND
     1     1     2 1   
     2     1    11 1   
     3     1    21 1   
     4     1    22 1   
     5     2     3 1   
     6     2    12 1   
     7     2    13 1   
     8     3     4 1   
     9     3    14 1   
    10     3    15 1   
    11     4     5 1   
    12     4    16 1   
    13     5     6 ar  
    14     5    10 ar  
    15     6     7 ar  
    16     6    17 1   
    17     7     8 ar  
    18     7    18 1   
    19     8     9 ar  
    20     9    10 ar  
    21     9    19 1   
    22    10    20 1   
@<TRIPOS>SUBSTRUCTURE
     1 01R         1 TEMP              0 ****  ****    0 ROOT
