@<TRIPOS>MOLECULE
01T
   56    57     1     0     0
SMALL
bcc


@<TRIPOS>ATOM
      1 C5           0.0950    -0.0930    -0.1250 ca         1 01T       0.437600
      2 C6          -0.6240    -0.1170    -1.4460 c3         1 01T      -0.122700
      3 C7          -1.3160    -1.4490    -1.7560 c3         1 01T      -0.049000
      4 C8          -1.7990    -1.4000    -3.2020 c3         1 01T      -0.089433
      5 C10         -0.3420    -2.6060    -1.5970 c3         1 01T      -0.089433
      6 C15          1.5250     0.1700     2.2480 ca         1 01T      -0.114600
      7 C17          1.9810     2.3620     3.2610 c          1 01T       0.930600
      8 C20         -0.6300    -0.1430     3.5480 cp         1 01T      -0.083000
      9 C21         -0.6390     0.7580     4.6190 ca         1 01T      -0.124000
     10 C22         -1.3650     0.4710     5.7740 ca         1 01T      -0.139000
     11 C26         -1.3710    -1.3340     3.6560 ca         1 01T      -0.124000
     12 O19          0.8170     2.7860     2.9360 o          1 01T      -0.838300
     13 O18          2.9340     3.1280     3.5180 o          1 01T      -0.838300
     14 C16          2.2370     0.8280     3.3610 c3         1 01T      -0.178100
     15 C3           2.1430    -0.1110     0.9890 ca         1 01T       0.450600
     16 C2           3.6450    -0.1780     0.9010 c3         1 01T      -0.142700
     17 C1           4.1790    -1.4170     1.5770 c3         1 01T      -0.092100
     18 N4           1.4360    -0.3190    -0.1410 nb         1 01T      -0.675000
     19 C9          -2.5150    -1.6620    -0.8460 c3         1 01T      -0.089433
     20 C11         -0.5810     0.1670     1.0810 ca         1 01T      -0.292600
     21 C12         -1.8890     0.8720     1.1850 c3         1 01T       0.193100
     22 N13         -1.5960     2.2570     1.6950 nz         1 01T      -0.864600
     23 C14          0.1290     0.0620     2.3080 cp         1 01T       0.012000
     24 C25         -2.0910    -1.6170     4.8110 ca         1 01T      -0.139000
     25 C23         -2.0940    -0.7170     5.8850 ca         1 01T      -0.066300
     26 C24         -2.8410    -1.0300     7.1240 c3         1 01T      -0.057800
     27 H6          -1.3860     0.7050    -1.4680 hc         1 01T       0.051700
     28 H6A          0.1060     0.0950    -2.2770 hc         1 01T       0.051700
     29 H8          -2.3640    -2.3300    -3.4490 hc         1 01T       0.037589
     30 H8A         -0.9300    -1.3160    -3.8990 hc         1 01T       0.037589
     31 H8B         -2.4700    -0.5220    -3.3600 hc         1 01T       0.037589
     32 H10          0.5920    -2.4080    -2.1760 hc         1 01T       0.037589
     33 H10A        -0.0710    -2.7430    -0.5230 hc         1 01T       0.037589
     34 H10B        -0.8040    -3.5510    -1.9710 hc         1 01T       0.037589
     35 H21         -0.0570     1.6990     4.5550 ha         1 01T       0.165000
     36 H22         -1.3540     1.1870     6.6100 ha         1 01T       0.138000
     37 H24         -3.7480    -1.6450     6.9010 hc         1 01T       0.047700
     38 H24A        -2.1880    -1.6120     7.8230 hc         1 01T       0.047700
     39 H24B        -3.1650    -0.0960     7.6450 hc         1 01T       0.047700
     40 H26         -1.3670    -2.0520     2.8220 ha         1 01T       0.165000
     41 H16          3.3400     0.6470     3.3370 hc         1 01T       0.068200
     42 H16A         1.8550     0.4830     4.3560 hc         1 01T       0.068200
     43 H2           3.9810    -0.1690    -0.1710 hc         1 01T       0.073700
     44 H2A          4.0640     0.7460     1.3850 hc         1 01T       0.073700
     45 H1           3.8630    -1.4540     2.6480 hc         1 01T       0.039700
     46 H1A          5.2950    -1.4160     1.5360 hc         1 01T       0.039700
     47 H1B          3.8070    -2.3380     1.0660 hc         1 01T       0.039700
     48 H9          -3.2870    -0.8750    -1.0250 hc         1 01T       0.037589
     49 H9A         -2.9750    -2.6600    -1.0450 hc         1 01T       0.037589
     50 H9B         -2.2010    -1.6220     0.2260 hc         1 01T       0.037589
     51 H12         -2.5640     0.3670     1.9340 hx         1 01T       0.092700
     52 H12A        -2.4250     0.9530     0.2000 hx         1 01T       0.092700
     53 HN13        -1.0500     2.7820     1.0060 hn         1 01T       0.468133
     54 HN1A        -0.9710     2.1990     2.5460 hn         1 01T       0.468133
     55 H25         -2.6560    -2.5580     4.8870 ha         1 01T       0.138000
     56 H133        -2.4500     2.7570     1.9160 hn         1 01T       0.468133
@<TRIPOS>BOND
     1     1     2 1   
     2     1    18 ar  
     3     1    20 ar  
     4     2     3 1   
     5     2    27 1   
     6     2    28 1   
     7     3     4 1   
     8     3     5 1   
     9     3    19 1   
    10     4    29 1   
    11     4    30 1   
    12     4    31 1   
    13     5    32 1   
    14     5    33 1   
    15     5    34 1   
    16     6    14 1   
    17     6    15 ar  
    18     6    23 ar  
    19     7    12 1   
    20     7    13 1   
    21     7    14 1   
    22     8     9 ar  
    23     8    11 ar  
    24     8    23 1   
    25     9    10 ar  
    26     9    35 1   
    27    10    25 ar  
    28    10    36 1   
    29    11    24 ar  
    30    11    40 1   
    31    14    41 1   
    32    14    42 1   
    33    15    16 1   
    34    15    18 ar  
    35    16    17 1   
    36    16    43 1   
    37    16    44 1   
    38    17    45 1   
    39    17    46 1   
    40    17    47 1   
    41    19    48 1   
    42    19    49 1   
    43    19    50 1   
    44    20    21 1   
    45    20    23 ar  
    46    21    22 1   
    47    21    51 1   
    48    21    52 1   
    49    22    53 1   
    50    22    54 1   
    51    22    56 1   
    52    24    25 ar  
    53    24    55 1   
    54    25    26 1   
    55    26    37 1   
    56    26    38 1   
    57    26    39 1   
@<TRIPOS>SUBSTRUCTURE
     1 01T         1 TEMP              0 ****  ****    0 ROOT
