@<TRIPOS>MOLECULE
molecule
   56    57     1     0     0
SMALL
bcc


@<TRIPOS>ATOM
      1 C5           0.0000     0.0000     0.0000 ca         1 01T       0.439600
      2 C6          -0.7430    -0.0000    -1.3120 c3         1 01T      -0.119700
      3 C7          -0.8180     1.4280    -1.8540 c3         1 01T      -0.067000
      4 C8           0.5930     1.9260    -2.1760 c3         1 01T      -0.083767
      5 C10         -1.6670     1.4460    -3.1280 c3         1 01T      -0.083767
      6 C15          1.3900    -0.0000     2.3480 ca         1 01T      -0.097600
      7 C17          2.4590    -1.4300     4.0400 c          1 01T       0.895600
      8 C20         -0.7270     0.0060     3.6910 cp         1 01T      -0.042000
      9 C21         -0.6170     1.0960     4.5510 ca         1 01T      -0.119000
     10 C22         -1.2880     1.0910     5.7570 ca         1 01T      -0.118500
     11 C26         -1.5210    -1.0810     4.0510 ca         1 01T      -0.119000
     12 O19          3.1650    -1.6820     5.1540 o          1 01T      -0.829300
     13 O18          2.0350    -2.3450     3.3750 o          1 01T      -0.829300
     14 C16          2.1960    -0.0070     3.6200 c3         1 01T      -0.165100
     15 C3           2.0190     0.0000     1.1190 ca         1 01T       0.483600
     16 C2           3.5240    -0.0060     1.0550 c3         1 01T      -0.134700
     17 C1           4.0270    -1.4510     1.0300 c3         1 01T      -0.084100
     18 N4           1.3190     0.0000     0.0000 nb         1 01T      -0.688000
     19 C9          -1.4550     2.3410    -0.8040 c3         1 01T      -0.083767
     20 C11         -0.7080     0.0060     1.1830 ca         1 01T      -0.322600
     21 C12         -2.2150     0.0120     1.1730 c3         1 01T       0.160100
     22 N13         -2.7110    -1.3640     1.3180 nz         1 01T      -0.813600
     23 C14         -0.0080     0.0060     2.3930 cp         1 01T       0.014000
     24 C25         -2.1880    -1.0750     5.2590 ca         1 01T      -0.118500
     25 C23         -2.0700     0.0070     6.1120 ca         1 01T      -0.068300
     26 H6          -0.2210    -0.6290    -2.0220 hc         1 01T       0.041200
     27 H6A         -1.7450    -0.3820    -1.1590 hc         1 01T       0.041200
     28 H8           1.1930     1.1010    -2.5400 hc         1 01T       0.038589
     29 H8A          1.0440     2.3340    -1.2790 hc         1 01T       0.038589
     30 H8B          0.5390     2.6970    -2.9350 hc         1 01T       0.038589
     31 H10         -1.2100     0.8090    -3.8760 hc         1 01T       0.038589
     32 H10A        -2.6630     1.0820    -2.9040 hc         1 01T       0.038589
     33 H10B        -1.7300     2.4590    -3.5060 hc         1 01T       0.038589
     34 H21         -0.0030     1.9450     4.2760 ha         1 01T       0.121500
     35 H22         -1.2020     1.9380     6.4270 ha         1 01T       0.136000
     36 H24         -3.6120     0.7240     7.3930 hc         1 01T       0.048033
     37 H24A        -2.1150     0.2770     8.2230 hc         1 01T       0.048033
     38 H24B        -3.2010    -0.9820     7.6200 hc         1 01T       0.048033
     39 H26         -1.6120    -1.9310     3.3840 ha         1 01T       0.121500
     40 H16          3.1380     0.5000     3.4530 hc         1 01T       0.059200
     41 H16A         1.6440     0.5030     4.4000 hc         1 01T       0.059200
     42 H2           3.8500     0.5060     0.1580 hc         1 01T       0.060200
     43 H2A          3.9240     0.5010     1.9250 hc         1 01T       0.060200
     44 H1           4.6730    -1.6230     1.8830 hc         1 01T       0.051033
     45 H1A          3.1830    -2.1280     1.0730 hc         1 01T       0.051033
     46 H1B          4.5830    -1.6240     0.1160 hc         1 01T       0.051033
     47 H9          -2.4680     2.0130    -0.6070 hc         1 01T       0.038589
     48 H9A         -1.4710     3.3600    -1.1730 hc         1 01T       0.038589
     49 H9B         -0.8770     2.2970     0.1110 hc         1 01T       0.038589
     50 H12         -2.5800     0.6150     1.9950 hx         1 01T       0.106700
     51 H12A        -2.5680     0.4260     0.2360 hx         1 01T       0.106700
     52 HN13        -3.3110    -1.4200     2.1170 hn         1 01T       0.450133
     53 HN1A        -3.2220    -1.6230     0.4980 hn         1 01T       0.450133
     54 H25         -2.8040    -1.9210     5.5410 ha         1 01T       0.136000
     55 C24         -2.8010     0.0070     7.4300 c3         1 01T      -0.050800
     56 H133        -1.9370    -1.9860     1.4480 hn         1 01T       0.450133
@<TRIPOS>BOND
     1    20     1 ar
     2    18     1 ar
     3     1     2 1
     4     3     2 1
     5     2    26 1
     6     2    27 1
     7    19     3 1
     8     5     3 1
     9     3     4 1
    10     4    28 1
    11     4    29 1
    12     4    30 1
    13     5    31 1
    14     5    32 1
    15     5    33 1
    16    14     6 1
    17     6    23 ar
    18     6    15 ar
    19    14     7 1
    20    13     7 1
    21     7    12 1
    22    11     8 ar
    23     8    23 1
    24     8     9 ar
    25    10     9 ar
    26     9    34 1
    27    25    10 ar
    28    10    35 1
    29    55    25 1
    30    55    36 1
    31    55    37 1
    32    55    38 1
    33    24    11 ar
    34    11    39 1
    35    14    40 1
    36    14    41 1
    37    16    15 1
    38    15    18 ar
    39    17    16 1
    40    16    42 1
    41    16    43 1
    42    17    44 1
    43    17    45 1
    44    17    46 1
    45    19    47 1
    46    19    48 1
    47    19    49 1
    48    23    20 ar
    49    20    21 1
    50    21    22 1
    51    21    50 1
    52    21    51 1
    53    22    52 1
    54    22    53 1
    55    24    25 ar
    56    24    54 1
    57    56    22 1
@<TRIPOS>SUBSTRUCTURE
     1 01T         1 TEMP              0 ****  ****    0 ROOT
