@<TRIPOS>MOLECULE
01U
   18    19     1     0     0
SMALL
bcc


@<TRIPOS>ATOM
      1 N25          0.0000     0.0000     0.0000 nv         1 01U      -0.556200
      2 C26          1.3990     0.0000     0.0000 ca         1 01U       0.014600
      3 C31          2.0930     0.0000     1.1970 ca         1 01U      -0.049000
      4 C30          3.4860     0.0000     1.1980 ca         1 01U      -0.034100
      5 S34          4.6430     0.0000     2.5260 ss         1 01U      -0.252100
      6 C33          5.9780     0.0000     1.3820 cc         1 01U       0.491100
      7 N35          7.3140     0.0000     1.7300 nv         1 01U      -0.436800
      8 N32          5.5330     0.0000     0.1730 nd         1 01U      -0.567100
      9 C29          4.1950     0.0000    -0.0070 ca         1 01U       0.128400
     10 C28          3.4690     0.0000    -1.2170 ca         1 01U      -0.068000
     11 C27          2.0980    -0.0060    -1.2060 ca         1 01U      -0.097000
     12 H25         -0.5000     0.8670     0.0020 hn         1 01U       0.272800
     13 H31          1.5520     0.0000     2.1350 ha         1 01U       0.113000
     14 H351         8.0170     0.0010     1.0180 hn         1 01U       0.274300
     15 H352         7.5790     0.0010     2.6950 hn         1 01U       0.274300
     16 H28          3.9980    -0.0050    -2.1610 ha         1 01U       0.112000
     17 H27          1.5530    -0.0150    -2.1420 ha         1 01U       0.109000
     18 H2          -0.5000    -0.8670     0.0080 hn         1 01U       0.272800
@<TRIPOS>BOND
     1     1     2 1   
     2     1    12 1   
     3     1    18 1   
     4     2     3 ar  
     5     2    11 ar  
     6     3     4 ar  
     7     3    13 1   
     8     4     5 1   
     9     4     9 ar  
    10     5     6 1   
    11     6     7 1   
    12     6     8 2   
    13     7    14 1   
    14     7    15 1   
    15     8     9 1   
    16     9    10 ar  
    17    10    11 ar  
    18    10    16 1   
    19    11    17 1   
@<TRIPOS>SUBSTRUCTURE
     1 01U         1 TEMP              0 ****  ****    0 ROOT
