@<TRIPOS>MOLECULE
01U
   18    19     1     0     0
SMALL
bcc


@<TRIPOS>ATOM
      1 N25          0.6750    -0.6420    -0.4830 nv         1 01U      -0.817200
      2 C26          1.1760     0.4610     0.2160 ca         1 01U       0.143600
      3 C31          1.3720     0.3980     1.6090 ca         1 01U      -0.158000
      4 C30          1.9560     1.4730     2.2690 ca         1 01U      -0.050100
      5 S34          2.3000     1.6540     3.9160 ss         1 01U      -0.079100
      6 C33          2.9770     3.2640     3.6120 cc         1 01U       0.548100
      7 N35          3.3820     4.0330     4.7020 nv         1 01U      -0.852800
      8 N32          2.9500     3.6490     2.3340 nd         1 01U      -0.580100
      9 C29          2.3590     2.6470     1.5540 ca         1 01U       0.070400
     10 C28          2.1500     2.7070     0.1630 ca         1 01U      -0.049000
     11 C27          1.5690     1.6360    -0.4870 ca         1 01U      -0.180000
     12 H25          0.2500    -0.4170    -1.3550 hn         1 01U       0.390800
     13 H31          1.0740    -0.4950     2.1780 ha         1 01U       0.139000
     14 H351         3.9770     3.5310     5.3280 hn         1 01U       0.399800
     15 H352         3.7520     4.9310     4.4620 hn         1 01U       0.399800
     16 H28          2.4500     3.6050    -0.3980 ha         1 01U       0.150000
     17 H27          1.4140     1.6910    -1.5760 ha         1 01U       0.135000
     18 H2           0.1340    -1.2690     0.0690 hn         1 01U       0.390800
@<TRIPOS>BOND
     1     1     2 1   
     2     1    12 1   
     3     1    18 1   
     4     2     3 ar  
     5     2    11 ar  
     6     3     4 ar  
     7     3    13 1   
     8     4     5 1   
     9     4     9 ar  
    10     5     6 1   
    11     6     7 1   
    12     6     8 2   
    13     7    14 1   
    14     7    15 1   
    15     8     9 1   
    16     9    10 ar  
    17    10    11 ar  
    18    10    16 1   
    19    11    17 1   
@<TRIPOS>SUBSTRUCTURE
     1 01U         1 TEMP              0 ****  ****    0 ROOT
