@<TRIPOS>MOLECULE
molecule
   18    19     1     0     0
SMALL
bcc


@<TRIPOS>ATOM
      1 N25          0.0000     0.0000     0.0000 nv         1 01U      -0.987200
      2 C26          1.3990     0.0000     0.0000 ca         1 01U       0.152600
      3 C31          2.0930     0.0000     1.1970 ca         1 01U      -0.095000
      4 C30          3.4860     0.0000     1.1980 ca         1 01U      -0.058100
      5 S34          4.6430     0.0000     2.5260 ss         1 01U      -0.183100
      6 C33          5.9780     0.0000     1.3820 cc         1 01U       0.675100
      7 N35          7.3140     0.0000     1.7300 nv         1 01U      -0.947800
      8 N32          5.5330     0.0000     0.1730 nd         1 01U      -0.674100
      9 C29          4.1950     0.0000    -0.0070 ca         1 01U       0.163400
     10 C28          3.4690     0.0000    -1.2170 ca         1 01U      -0.094000
     11 C27          2.0980    -0.0060    -1.2060 ca         1 01U      -0.130000
     12 H25         -0.5000     0.8670     0.0020 hn         1 01U       0.427800
     13 H31          1.5520     0.0000     2.1350 ha         1 01U       0.139000
     14 H351         8.0170     0.0010     1.0180 hn         1 01U       0.449800
     15 H352         7.5790     0.0010     2.6950 hn         1 01U       0.449800
     16 H28          3.9980    -0.0050    -2.1610 ha         1 01U       0.144000
     17 H27          1.5530    -0.0150    -2.1420 ha         1 01U       0.140000
     18 H2          -0.5000    -0.8670     0.0080 hn         1 01U       0.427800
@<TRIPOS>BOND
     1     1     2 1
     2     1    12 1
     3     2     3 ar
     4     2    11 ar
     5     3     4 ar
     6     3    13 1
     7     4     5 1
     8     4     9 ar
     9     5     6 1
    10     6     7 1
    11     6     8 2
    12     7    14 1
    13     7    15 1
    14     8     9 1
    15     9    10 ar
    16    10    11 ar
    17    10    16 1
    18    11    17 1
    19     1    18 1
@<TRIPOS>SUBSTRUCTURE
     1 01U         1 TEMP              0 ****  ****    0 ROOT
