@<TRIPOS>MOLECULE
molecule
   18    18     1     0     0
SMALL
bcc


@<TRIPOS>ATOM
      1 N'           0.0000     0.0000     0.0000 nz         1 01V      -0.810600
      2 CA'          1.4690     0.0000     0.0000 c3         1 01V       0.160100
      3 CB'          1.9710     0.0000     1.4200 ca         1 01V      -0.182300
      4 CG'          2.0060    -1.1800     2.1410 ca         1 01V       0.033400
      5 CD'          2.4680    -1.1810     3.4460 ca         1 01V      -0.092000
      6 CE'          2.8940    -0.0030     4.0280 ca         1 01V      -0.063000
      7 CDB          2.8590     1.1780     3.3070 ca         1 01V       0.032400
      8 CGB          2.4030     1.1780     2.0020 ca         1 01V      -0.087000
      9 Cl1          1.4700    -2.6610     1.4100 cl         1 01V      -0.084400
     10 Cl2          3.3950     2.6580     4.0390 cl         1 01V      -0.037400
     11 HN'         -0.3340     0.7040     0.6280 hn         1 01V       0.457800
     12 HA11         1.8300    -0.8840    -0.5110 hx         1 01V       0.119700
     13 HA12         1.8300     0.8840    -0.5110 hx         1 01V       0.119700
     14 HD'          2.4950    -2.1050     4.0110 ha         1 01V       0.179000
     15 HE'          3.2540    -0.0030     5.0500 ha         1 01V       0.180000
     16 HG'          2.3760     2.1020     1.4370 ha         1 01V       0.158000
     17 H2          -0.3340    -0.8960     0.2950 hn         1 01V       0.457800
     18 H'3         -0.3340     0.1920    -0.9240 hn         1 01V       0.457800
@<TRIPOS>BOND
     1     1     2 1   
     2     1    11 1   
     3     2     3 1   
     4     2    12 1   
     5     2    13 1   
     6     3     4 ar  
     7     3     8 ar  
     8     4     5 ar  
     9     4     9 1   
    10     5     6 ar  
    11     5    14 1   
    12     6     7 ar  
    13     6    15 1   
    14     7     8 ar  
    15     7    10 1   
    16     8    16 1   
    17     1    17 1   
    18    18     1 1   
@<TRIPOS>SUBSTRUCTURE
     1 01V         1 TEMP              0 ****  ****    0 ROOT
