@<TRIPOS>MOLECULE
01V
   18    18     1     0     0
SMALL
bcc


@<TRIPOS>ATOM
      1 N'           0.0000     0.0000     0.0000 nz         1 01V       0.072400
      2 CA'          1.4690     0.0000     0.0000 c3         1 01V       0.033100
      3 CB'          1.9710     0.0000     1.4200 ca         1 01V      -0.196300
      4 CG'          2.0060    -1.1800     2.1410 ca         1 01V      -0.037600
      5 CD'          2.4680    -1.1810     3.4460 ca         1 01V      -0.060000
      6 CE'          2.8940    -0.0030     4.0280 ca         1 01V      -0.031000
      7 CDB          2.8590     1.1780     3.3070 ca         1 01V      -0.045600
      8 CGB          2.4030     1.1780     2.0020 ca         1 01V      -0.055000
      9 Cl1          1.4700    -2.6610     1.4100 cl         1 01V       0.006600
     10 Cl2          3.3950     2.6580     4.0390 cl         1 01V       0.060600
     11 HN'         -0.3340     0.7040     0.6280 hn         1 01V       0.225133
     12 HA11         1.8300    -0.8840    -0.5110 hx         1 01V       0.087700
     13 HA12         1.8300     0.8840    -0.5110 hx         1 01V       0.087700
     14 HD'          2.4950    -2.1050     4.0110 ha         1 01V       0.140000
     15 HE'          3.2540    -0.0030     5.0500 ha         1 01V       0.138000
     16 HG'          2.3760     2.1020     1.4370 ha         1 01V       0.124000
     17 H2          -0.3340    -0.8960     0.2950 hn         1 01V       0.225133
     18 H'3         -0.3340     0.1920    -0.9240 hn         1 01V       0.225133
@<TRIPOS>BOND
     1     1     2 1   
     2     1    11 1   
     3     1    17 1   
     4     1    18 1   
     5     2     3 1   
     6     2    12 1   
     7     2    13 1   
     8     3     4 ar  
     9     3     8 ar  
    10     4     5 ar  
    11     4     9 1   
    12     5     6 ar  
    13     5    14 1   
    14     6     7 ar  
    15     6    15 1   
    16     7     8 ar  
    17     7    10 1   
    18     8    16 1   
@<TRIPOS>SUBSTRUCTURE
     1 01V         1 TEMP              0 ****  ****    0 ROOT
