@<TRIPOS>MOLECULE
01V
   18    18     1     0     0
SMALL
bcc


@<TRIPOS>ATOM
      1 N'           0.1220     0.4440    -0.0940 nz         1 01V      -0.847600
      2 CA'          1.4570    -0.2200     0.0590 c3         1 01V       0.171100
      3 CB'          1.9580    -0.1410     1.4610 ca         1 01V      -0.175300
      4 CG'          2.3010     1.0890     2.0480 ca         1 01V       0.016400
      5 CD'          2.8470     1.1340     3.3320 ca         1 01V      -0.093000
      6 CE'          3.0490    -0.0490     4.0430 ca         1 01V      -0.070000
      7 CDB          2.7000    -1.2770     3.4690 ca         1 01V       0.021400
      8 CGB          2.1540    -1.3240     2.1800 ca         1 01V      -0.083000
      9 Cl1          2.0530     2.5460     1.2000 cl         1 01V      -0.079400
     10 Cl2          2.9360    -2.7120     4.3260 cl         1 01V      -0.018400
     11 HN'          0.2040     1.4380     0.1680 hn         1 01V       0.462800
     12 HA11         2.1770     0.2990    -0.6420 hx         1 01V       0.120200
     13 HA12         1.3450    -1.2950    -0.2690 hx         1 01V       0.120200
     14 HD'          3.1250     2.1010     3.7850 ha         1 01V       0.182000
     15 HE'          3.4850    -0.0110     5.0560 ha         1 01V       0.183000
     16 HG'          1.8960    -2.2980     1.7310 ha         1 01V       0.163000
     17 H2          -0.5660    -0.0010     0.5220 hn         1 01V       0.462800
     18 H'3         -0.1970     0.3730    -1.0640 hn         1 01V       0.462800
@<TRIPOS>BOND
     1     1     2 1   
     2     1    11 1   
     3     1    17 1   
     4     1    18 1   
     5     2     3 1   
     6     2    12 1   
     7     2    13 1   
     8     3     4 ar  
     9     3     8 ar  
    10     4     5 ar  
    11     4     9 1   
    12     5     6 ar  
    13     5    14 1   
    14     6     7 ar  
    15     6    15 1   
    16     7     8 ar  
    17     7    10 1   
    18     8    16 1   
@<TRIPOS>SUBSTRUCTURE
     1 01V         1 TEMP              0 ****  ****    0 ROOT
