@<TRIPOS>MOLECULE
molecule
   21    21     1     0     0
SMALL
bcc


@<TRIPOS>ATOM
      1 O32          0.0000     0.0000     0.0000 o          1 01Y      -0.838300
      2 C14          1.2090     0.0000     0.0000 c          1 01Y       0.895600
      3 C5           1.9620     0.0000     1.3040 c3         1 01Y       0.024400
      4 O21          1.0330    -0.0020     2.3920 os         1 01Y      -0.389600
      5 C44          1.6490    -0.0040     3.6820 c3         1 01Y       0.139100
      6 C49          0.7520    -0.7270     4.7060 c3         1 01Y      -0.093900
      7 C48          0.8770     0.0500     6.0280 c3         1 01Y      -0.086400
      8 C47          1.8480     1.2200     5.7590 c3         1 01Y      -0.086400
      9 C45          1.7620     1.4400     4.2280 c3         1 01Y      -0.093900
     10 H5           2.5860    -0.8840     1.3610 h1         1 01Y       0.010200
     11 H5A          2.5840     0.8850     1.3620 h1         1 01Y       0.010200
     12 H44          2.6260    -0.4690     3.6410 h1         1 01Y       0.026700
     13 H49          1.0940    -1.7460     4.8420 hc         1 01Y       0.050700
     14 H49A        -0.2770    -0.7180     4.3680 hc         1 01Y       0.050700
     15 H48         -0.0910     0.4340     6.3250 hc         1 01Y       0.029700
     16 H48A         1.2800    -0.5950     6.7990 hc         1 01Y       0.029700
     17 H47          2.8560     0.9470     6.0460 hc         1 01Y       0.029700
     18 H47A         1.5230     2.1080     6.2880 hc         1 01Y       0.029700
     19 H45          0.8800     2.0150     3.9740 hc         1 01Y       0.050700
     20 H45A         2.6610     1.9190     3.8600 hc         1 01Y       0.050700
     21 OXT          1.8790    -0.0190    -1.1620 o          1 01Y      -0.838300
@<TRIPOS>BOND
     1     2     1 1
     2     2     3 1
     3     3     4 1
     4     4     5 1
     5     9     5 1
     6     9     8 1
     7     5     6 1
     8     6     7 1
     9     8     7 1
    10     3    10 1
    11     3    11 1
    12     5    12 1
    13     6    13 1
    14     6    14 1
    15     7    15 1
    16     7    16 1
    17     8    17 1
    18     8    18 1
    19     9    19 1
    20     9    20 1
    21     2    21 1
@<TRIPOS>SUBSTRUCTURE
     1 01Y         1 TEMP              0 ****  ****    0 ROOT
