@<TRIPOS>MOLECULE
molecule
   24    24     1     0     0
SMALL
bcc


@<TRIPOS>ATOM
      1 O32          0.0000     0.0000     0.0000 o          1 01Z      -0.838300
      2 C14          1.2080     0.0000     0.0000 c          1 01Z       0.895600
      3 C5           1.9600     0.0000     1.3050 c3         1 01Z       0.024400
      4 O21          1.0320     0.0010     2.3920 os         1 01Z      -0.392600
      5 C44          1.6450     0.0020     3.6820 c3         1 01Z       0.142100
      6 C49          0.7360    -0.7190     4.6790 c3         1 01Z      -0.088900
      7 C48          1.3930    -0.7180     6.0610 c3         1 01Z      -0.080400
      8 C47          1.6130     0.7240     6.5210 c3         1 01Z      -0.079400
      9 C46          2.5220     1.4450     5.5230 c3         1 01Z      -0.080400
     10 C45          1.8640     1.4440     4.1410 c3         1 01Z      -0.088900
     11 H5           2.5840     0.8840     1.3630 h1         1 01Z       0.009700
     12 H5A          2.5830    -0.8850     1.3630 h1         1 01Z       0.009700
     13 H44          2.6000    -0.5080     3.6330 h1         1 01Z       0.021700
     14 H49          0.5840    -1.7410     4.3540 hc         1 01Z       0.049950
     15 H49A        -0.2160    -0.2060     4.7330 hc         1 01Z       0.049950
     16 H48          0.7460    -1.2260     6.7670 hc         1 01Z       0.030450
     17 H48A         2.3470    -1.2280     6.0060 hc         1 01Z       0.030450
     18 H47          0.6590     1.2350     6.5730 hc         1 01Z       0.030200
     19 H47A         2.0810     0.7230     7.4980 hc         1 01Z       0.030200
     20 H46          3.4740     0.9310     5.4680 hc         1 01Z       0.030450
     21 H46A         2.6750     2.4670     5.8480 hc         1 01Z       0.030450
     22 H45          0.9090     1.9530     4.1980 hc         1 01Z       0.049950
     23 H45A         2.5090     1.9530     3.4350 hc         1 01Z       0.049950
     24 OXT          1.8790    -0.0290    -1.1620 o          1 01Z      -0.838300
@<TRIPOS>BOND
     1     1     2 1
     2     2     3 1
     3     3     4 1
     4     4     5 1
     5     5     6 1
     6     5    10 1
     7     6     7 1
     8     7     8 1
     9     8     9 1
    10     9    10 1
    11     3    11 1
    12     3    12 1
    13     5    13 1
    14     6    14 1
    15     6    15 1
    16     7    16 1
    17     7    17 1
    18     8    18 1
    19     8    19 1
    20     9    20 1
    21     9    21 1
    22    10    22 1
    23    10    23 1
    24     2    24 1
@<TRIPOS>SUBSTRUCTURE
     1 01Z         1 TEMP              0 ****  ****    0 ROOT
