@<TRIPOS>MOLECULE
01Z
   24    24     1     0     0
SMALL
bcc


@<TRIPOS>ATOM
      1 O32          0.0000     0.0000     0.0000 o          1 01Z      -0.891800
      2 C14          1.2080     0.0000     0.0000 c          1 01Z       0.975600
      3 C5           1.9600     0.0000     1.3050 c3         1 01Z       0.092400
      4 O21          1.0320     0.0010     2.3920 os         1 01Z      -0.369600
      5 C44          1.6450     0.0020     3.6820 c3         1 01Z       0.165100
      6 C49          0.7360    -0.7190     4.6790 c3         1 01Z      -0.044400
      7 C48          1.3930    -0.7180     6.0610 c3         1 01Z      -0.021900
      8 C47          1.6130     0.7240     6.5210 c3         1 01Z      -0.025400
      9 C46          2.5220     1.4450     5.5230 c3         1 01Z      -0.021900
     10 C45          1.8640     1.4440     4.1410 c3         1 01Z      -0.044400
     11 H5           2.5840     0.8840     1.3630 h1         1 01Z      -0.018800
     12 H5A          2.5830    -0.8850     1.3630 h1         1 01Z      -0.018800
     13 H44          2.6000    -0.5080     3.6330 h1         1 01Z      -0.000300
     14 H49          0.5840    -1.7410     4.3540 hc         1 01Z       0.022950
     15 H49A        -0.2160    -0.2060     4.7330 hc         1 01Z       0.022950
     16 H48          0.7460    -1.2260     6.7670 hc         1 01Z       0.004200
     17 H48A         2.3470    -1.2280     6.0060 hc         1 01Z       0.004200
     18 H47          0.6590     1.2350     6.5730 hc         1 01Z       0.004200
     19 H47A         2.0810     0.7230     7.4980 hc         1 01Z       0.004200
     20 H46          3.4740     0.9310     5.4680 hc         1 01Z       0.004200
     21 H46A         2.6750     2.4670     5.8480 hc         1 01Z       0.004200
     22 H45          0.9090     1.9530     4.1980 hc         1 01Z       0.022950
     23 H45A         2.5090     1.9530     3.4350 hc         1 01Z       0.022950
     24 OXT          1.8790    -0.0290    -1.1620 o          1 01Z      -0.891800
@<TRIPOS>BOND
     1     1     2 1   
     2     2     3 1   
     3     2    24 1   
     4     3     4 1   
     5     3    11 1   
     6     3    12 1   
     7     4     5 1   
     8     5     6 1   
     9     5    10 1   
    10     5    13 1   
    11     6     7 1   
    12     6    14 1   
    13     6    15 1   
    14     7     8 1   
    15     7    16 1   
    16     7    17 1   
    17     8     9 1   
    18     8    18 1   
    19     8    19 1   
    20     9    10 1   
    21     9    20 1   
    22     9    21 1   
    23    10    22 1   
    24    10    23 1   
@<TRIPOS>SUBSTRUCTURE
     1 01Z         1 TEMP              0 ****  ****    0 ROOT
