@<TRIPOS>MOLECULE
022
   53    56     1     0     0
SMALL
bcc


@<TRIPOS>ATOM
      1 C1           0.0000     0.0000     0.0000 cc         1 022       0.196400
      2 N2           1.3580     0.0000     0.0000 na         1 022       0.428000
      3 C3           1.7600     0.0000     1.3110 cc         1 022      -0.444600
      4 C4           0.6420    -0.0010     2.0620 cd         1 022       0.330200
      5 N5          -0.4160    -0.0010     1.2370 nd         1 022      -0.613000
      6 C11          2.1920    -0.0000    -1.1270 ca         1 022      -0.189200
      7 C13          3.5720    -0.0050    -0.9670 ca         1 022      -0.093000
      8 C14          4.3960    -0.0060    -2.0730 ca         1 022      -0.118500
      9 C15          3.8410    -0.0010    -3.3540 ca         1 022       0.053000
     10 C16          2.4530     0.0050    -3.5110 ca         1 022      -0.118500
     11 C17          1.6360    -0.0000    -2.4000 ca         1 022      -0.093000
     12 C24          4.7200     0.0000    -4.5420 cc         1 022      -0.306300
     13 C26          6.0780    -0.1070    -4.5350 cd         1 022      -0.117000
     14 C27          6.5090    -0.0640    -5.8720 cd         1 022      -0.171000
     15 C28          5.4160     0.0670    -6.6540 cc         1 022      -0.242600
     16 N29          4.3110     0.1010    -5.8500 na         1 022       0.492800
     17 C35          5.4150     0.1530    -8.1580 c3         1 022       0.067900
     18 C37          5.4280    -1.2570    -8.7510 c3         1 022      -0.140400
     19 C38          5.4270    -1.1710   -10.2550 c          1 022       0.974600
     20 O41          5.4360    -2.2920   -10.9920 o          1 022      -0.890800
     21 O43          5.4160    -0.0910   -10.7980 o          1 022      -0.890800
     22 C45          2.9890     0.2230    -6.2860 ca         1 022      -0.051200
     23 C47          2.2420    -0.9170    -6.5630 ca         1 022      -0.047300
     24 C48          0.9390    -0.8010    -6.9910 ca         1 022       0.020000
     25 C49          0.3670     0.4650    -7.1490 ca         1 022      -0.233600
     26 C50          1.1210     1.6070    -6.8720 ca         1 022      -0.095000
     27 C51          2.4230     1.4840    -6.4370 ca         1 022      -0.059000
     28 C58         -1.0290     0.5930    -7.6100 c          1 022       0.359700
     29 O59         -1.6840    -0.4020    -7.8510 o          1 022      -0.438100
     30 N62         -1.5790     1.8150    -7.7620 nz         1 022       0.197600
     31 C64          2.8590    -2.2810    -6.3920 c3         1 022       0.028200
     32 H1          -0.6320     0.0000    -0.8800 h5         1 022       0.018100
     33 H3           2.7810     0.0000     1.6740 h4         1 022       0.159000
     34 H4           0.6030    -0.0010     3.1440 h4         1 022       0.005100
     35 H13          4.0020    -0.0100     0.0270 ha         1 022       0.112500
     36 H14          5.4720    -0.0100    -1.9480 ha         1 022       0.118500
     37 H16          2.0190     0.0070    -4.5030 ha         1 022       0.118500
     38 H17          0.5590     0.0040    -2.5200 ha         1 022       0.112500
     39 H26          6.7090    -0.2070    -3.6610 ha         1 022       0.127000
     40 H27          7.5350    -0.1220    -6.2140 ha         1 022       0.143000
     41 H35          6.2950     0.6920    -8.4890 hc         1 022       0.029200
     42 H35A         4.5260     0.6760    -8.4890 hc         1 022       0.029200
     43 H37          6.3170    -1.7800    -8.4200 hc         1 022       0.009200
     44 H37A         4.5490    -1.7960    -8.4200 hc         1 022       0.009200
     45 H48          0.3580    -1.6890    -7.2050 ha         1 022       0.138000
     46 H50          0.6800     2.5900    -6.9910 ha         1 022       0.079000
     47 H51          3.0080     2.3700    -6.2220 ha         1 022       0.139000
     48 HN62        -1.5730     2.2950    -6.8840 hn         1 022       0.245133
     49 HN6A        -2.5220     1.7180    -8.0830 hn         1 022       0.245133
     50 H64          3.8930    -2.1740    -6.0870 hc         1 022       0.040700
     51 H64A         2.3140    -2.8310    -5.6340 hc         1 022       0.040700
     52 H64B         2.8130    -2.8180    -7.3310 hc         1 022       0.040700
     53 H623        -1.0770     2.3220    -8.4640 hn         1 022       0.245133
@<TRIPOS>BOND
     1     1     2 1   
     2     1     5 2   
     3     1    32 1   
     4     2     3 1   
     5     2     6 1   
     6     3     4 2   
     7     3    33 1   
     8     4     5 1   
     9     4    34 1   
    10     6     7 ar  
    11     6    11 ar  
    12     7     8 ar  
    13     7    35 1   
    14     8     9 ar  
    15     8    36 1   
    16     9    10 ar  
    17     9    12 1   
    18    10    11 ar  
    19    10    37 1   
    20    11    38 1   
    21    12    13 2   
    22    12    16 1   
    23    13    14 1   
    24    13    39 1   
    25    14    15 2   
    26    14    40 1   
    27    15    16 1   
    28    15    17 1   
    29    16    22 1   
    30    17    18 1   
    31    17    41 1   
    32    17    42 1   
    33    18    19 1   
    34    18    43 1   
    35    18    44 1   
    36    19    20 1   
    37    19    21 1   
    38    22    23 ar  
    39    22    27 ar  
    40    23    24 ar  
    41    23    31 1   
    42    24    25 ar  
    43    24    45 1   
    44    25    26 ar  
    45    25    28 1   
    46    26    27 ar  
    47    26    46 1   
    48    27    47 1   
    49    28    29 2   
    50    28    30 1   
    51    30    48 1   
    52    30    49 1   
    53    30    53 1   
    54    31    50 1   
    55    31    51 1   
    56    31    52 1   
@<TRIPOS>SUBSTRUCTURE
     1 022         1 TEMP              0 ****  ****    0 ROOT
