@<TRIPOS>MOLECULE
022
   53    56     1     0     0
SMALL
bcc


@<TRIPOS>ATOM
      1 C1           0.5590    -1.2050     0.6670 cc         1 022       0.401400
      2 N2           1.6020    -0.3630     0.2250 na         1 022      -0.142000
      3 C3           1.9630     0.4300     1.3260 cc         1 022      -0.245600
      4 C4           1.1290     0.0330     2.3830 cd         1 022       0.295200
      5 N5           0.2630    -0.9790     1.9600 nd         1 022      -0.661000
      6 C11          2.1640    -0.3220    -1.0620 ca         1 022       0.019800
      7 C13          2.1050    -1.4530    -1.9070 ca         1 022      -0.145500
      8 C14          2.6570    -1.4040    -3.1800 ca         1 022      -0.098500
      9 C15          3.2890    -0.2420    -3.6500 ca         1 022      -0.021000
     10 C16          3.3550     0.8760    -2.8090 ca         1 022      -0.098500
     11 C17          2.7980     0.8470    -1.5350 ca         1 022      -0.145500
     12 C24          3.8890    -0.2580    -4.9710 cc         1 022      -0.058300
     13 C26          4.5460    -1.3530    -5.5680 cd         1 022      -0.175000
     14 C27          4.9800    -0.9450    -6.8650 cd         1 022      -0.182000
     15 C28          4.5810     0.3900    -7.0450 cc         1 022      -0.108600
     16 N29          3.9250     0.8160    -5.8770 na         1 022       0.002800
     17 C35          4.7840     1.2300    -8.2450 c3         1 022      -0.006100
     18 C37          5.9920     2.1370    -8.0880 c3         1 022      -0.126400
     19 C38          6.1780     3.0070    -9.2900 c          1 022       0.634100
     20 O41          6.3830     2.3300   -10.4550 oh         1 022      -0.607100
     21 O43          6.1830     4.2390    -9.3570 o          1 022      -0.552000
     22 C45          3.3110     2.0850    -5.7220 ca         1 022      -0.000200
     23 C47          1.9440     2.2790    -6.0340 ca         1 022      -0.060300
     24 C48          1.3910     3.5570    -5.8930 ca         1 022      -0.080000
     25 C49          2.1690     4.6350    -5.4670 ca         1 022      -0.123600
     26 C50          3.5150     4.4400    -5.1460 ca         1 022      -0.108000
     27 C51          4.0820     3.1760    -5.2670 ca         1 022      -0.133000
     28 C58          1.5170     5.9720    -5.3460 c          1 022       0.667700
     29 O59          0.3450     6.0960    -4.9350 o          1 022      -0.602100
     30 N62          2.2450     7.0800    -5.7040 nt         1 022      -0.669000
     31 C64          1.0930     1.1620    -6.5050 c3         1 022      -0.061800
     32 H1           0.0670    -1.9290     0.0100 h5         1 022       0.064100
     33 H3           2.7570     1.1710     1.2760 h4         1 022       0.180000
     34 H4           1.1030     0.4110     3.4040 h4         1 022       0.045100
     35 H13          1.6260    -2.3830    -1.5640 ha         1 022       0.144000
     36 H14          2.6030    -2.2920    -3.8300 ha         1 022       0.144500
     37 H16          3.8510     1.7960    -3.1560 ha         1 022       0.144500
     38 H17          2.8540     1.7460    -0.9030 ha         1 022       0.144000
     39 H26          4.7020    -2.3250    -5.1090 ha         1 022       0.157000
     40 H27          5.5200    -1.5510    -7.5870 ha         1 022       0.157000
     41 H35          4.9400     0.5570    -9.1320 hc         1 022       0.070200
     42 H35A         3.8700     1.8530    -8.4490 hc         1 022       0.070200
     43 H37          5.8680     2.8000    -7.1910 hc         1 022       0.083700
     44 H37A         6.9190     1.5200    -7.9490 hc         1 022       0.083700
     45 H48          0.3220     3.7200    -6.1110 ha         1 022       0.164000
     46 H50          4.1340     5.2740    -4.7830 ha         1 022       0.144000
     47 H51          5.1430     3.0330    -5.0030 ha         1 022       0.149000
     48 HN62         1.8160     7.9710    -5.6740 hn         1 022       0.315500
     49 HN6A         6.5030     2.9630   -11.1830 ho         1 022       0.446000
     50 H64          1.4890     0.7540    -7.4700 hc         1 022       0.057367
     51 H64A         0.0390     1.4970    -6.6680 hc         1 022       0.057367
     52 H64B         1.0880     0.3330    -5.7520 hc         1 022       0.057367
     53 H623         3.1350     6.9920    -6.1210 hn         1 022       0.315500
@<TRIPOS>BOND
     1     1     2 1   
     2     1     5 2   
     3     1    32 1   
     4     2     3 1   
     5     2     6 1   
     6     3     4 2   
     7     3    33 1   
     8     4     5 1   
     9     4    34 1   
    10     6     7 ar  
    11     6    11 ar  
    12     7     8 ar  
    13     7    35 1   
    14     8     9 ar  
    15     8    36 1   
    16     9    10 ar  
    17     9    12 1   
    18    10    11 ar  
    19    10    37 1   
    20    11    38 1   
    21    12    13 2   
    22    12    16 1   
    23    13    14 1   
    24    13    39 1   
    25    14    15 2   
    26    14    40 1   
    27    15    16 1   
    28    15    17 1   
    29    16    22 1   
    30    17    18 1   
    31    17    41 1   
    32    17    42 1   
    33    18    19 1   
    34    18    43 1   
    35    18    44 1   
    36    19    20 1   
    37    19    21 2   
    38    20    49 1   
    39    22    23 ar  
    40    22    27 ar  
    41    23    24 ar  
    42    23    31 1   
    43    24    25 ar  
    44    24    45 1   
    45    25    26 ar  
    46    25    28 1   
    47    26    27 ar  
    48    26    46 1   
    49    27    47 1   
    50    28    29 2   
    51    28    30 1   
    52    30    48 1   
    53    30    53 1   
    54    31    50 1   
    55    31    51 1   
    56    31    52 1   
@<TRIPOS>SUBSTRUCTURE
     1 022         1 TEMP              0 ****  ****    0 ROOT
