@<TRIPOS>MOLECULE
molecule
   61    61     1     0     0
SMALL
bcc


@<TRIPOS>ATOM
      1 C25          0.0000     0.0000     0.0000 c3         1 023       0.101300
      2 N18          1.4640     0.0000     0.0000 ns         1 023      -0.581900
      3 C14          2.1390     0.0000     1.1660 c          1 023       0.656100
      4 O19          1.5370     0.0910     2.2150 o          1 023      -0.616100
      5 C10          3.6420    -0.1140     1.1680 c3         1 023       0.051700
      6 C15          4.0420    -1.5850     1.0390 c3         1 023      -0.077000
      7 C22          3.5470    -2.1320    -0.3010 c3         1 023      -0.086767
      8 C21          5.5650    -1.7070     1.1080 c3         1 023      -0.086767
      9 C20          3.4140    -2.3870     2.1810 c3         1 023      -0.086767
     10 N5           4.1710     0.4280     2.4220 ns         1 023      -0.572900
     11 C2           5.4330     0.9000     2.4720 c          1 023       0.665100
     12 O6           6.0970     0.9650     1.4610 o          1 023      -0.605100
     13 C1           6.0170     1.3480     3.7880 c3         1 023      -0.155700
     14 C3           6.6330     0.1460     4.5080 c3         1 023       0.121700
     15 C8           5.5860    -0.9630     4.6350 c3         1 023      -0.131100
     16 N7           7.0790     0.5530     5.8420 n          1 023      -0.382300
     17 O12          8.4170     0.3150     6.2440 oh         1 023      -0.365100
     18 C11          6.2180     1.1520     6.6870 c          1 023       0.659900
     19 O16          6.6100     1.5700     7.7560 o          1 023      -0.573100
     20 C4           7.0990     2.3990     3.5340 c3         1 023      -0.064400
     21 C9           7.5870     2.9630     4.8700 c3         1 023      -0.099400
     22 C13          8.5670     4.1100     4.6120 c3         1 023      -0.031100
     23 C17          9.0470     4.6650     5.9280 ca         1 023      -0.077300
     24 C23         10.1780     4.1410     6.5280 ca         1 023      -0.121000
     25 C26         10.6170     4.6500     7.7350 ca         1 023      -0.125500
     26 C28          9.9280     5.6830     8.3430 ca         1 023      -0.131000
     27 C27          8.7980     6.2070     7.7430 ca         1 023      -0.125500
     28 C24          8.3610     5.7010     6.5330 ca         1 023      -0.121000
     29 H251        -0.3610     0.9110     0.4610 h1         1 023       0.044367
     30 H252        -0.3610    -0.8550     0.5590 h1         1 023       0.044367
     31 H253        -0.3610    -0.0560    -1.0200 h1         1 023       0.044367
     32 H18          1.9640     0.0440    -0.8660 hn         1 023       0.318500
     33 H10          4.0480     0.4450     0.3330 h1         1 023       0.087700
     34 H5           3.5760     0.5060     3.2230 hn         1 023       0.337500
     35 H221         3.6730    -1.3780    -1.0680 hc         1 023       0.041256
     36 H222         4.1180    -3.0140    -0.5640 hc         1 023       0.041256
     37 H223         2.4980    -2.3920    -0.2190 hc         1 023       0.041256
     38 H211         5.9110    -1.3660     2.0760 hc         1 023       0.041256
     39 H212         6.0120    -1.0990     0.3310 hc         1 023       0.041256
     40 H213         5.8510    -2.7420     0.9670 hc         1 023       0.041256
     41 H201         4.1000    -3.1630     2.4970 hc         1 023       0.041256
     42 H202         3.2060    -1.7260     3.0140 hc         1 023       0.041256
     43 H203         2.4900    -2.8380     1.8390 hc         1 023       0.041256
     44 H1           5.2350     1.7760     4.4030 hc         1 023       0.061700
     45 H3           7.4800    -0.2200     3.9400 h1         1 023       0.090700
     46 H41C         6.6890     3.2010     2.9320 hc         1 023       0.057700
     47 H42C         7.9300     1.9420     3.0090 hc         1 023       0.057700
     48 H81C         5.6680    -1.4260     5.6110 hc         1 023       0.051033
     49 H82C         4.5960    -0.5400     4.5180 hc         1 023       0.051033
     50 H83C         5.7540    -1.7080     3.8670 hc         1 023       0.051033
     51 H12          8.4760    -0.5330     6.6530 ho         1 023       0.397000
     52 H11          5.1730     1.2450     6.4200 h5         1 023       0.040200
     53 H91C         8.0850     2.1810     5.4310 hc         1 023       0.064200
     54 H92C         6.7400     3.3310     5.4370 hc         1 023       0.064200
     55 H131         9.4130     3.7410     4.0450 hc         1 023       0.045700
     56 H132         8.0690     4.8910     4.0500 hc         1 023       0.045700
     57 H23         10.7180     3.3310     6.0530 ha         1 023       0.128000
     58 H24          7.4750     6.1120     6.0630 ha         1 023       0.128000
     59 H26         11.5020     4.2400     8.2060 ha         1 023       0.126000
     60 H28         10.2720     6.0800     9.2900 ha         1 023       0.125000
     61 H27          8.2590     7.0180     8.2170 ha         1 023       0.126000
@<TRIPOS>BOND
     1     1     2 1   
     2     2     3 1   
     3     3     4 2   
     4     3     5 1   
     5     5     6 1   
     6     5    10 1   
     7     6     7 1   
     8     6     8 1   
     9     6     9 1   
    10    10    11 1   
    11    11    12 2   
    12    11    13 1   
    13    13    14 1   
    14    13    20 1   
    15    14    15 1   
    16    14    16 1   
    17    16    17 1   
    18    16    18 1   
    19    18    19 2   
    20    20    21 1   
    21    21    22 1   
    22    22    23 1   
    23    23    24 ar  
    24    23    28 ar  
    25    24    25 ar  
    26    25    26 ar  
    27    26    27 ar  
    28    27    28 ar  
    29     1    29 1   
    30     1    30 1   
    31     1    31 1   
    32     2    32 1   
    33     5    33 1   
    34    10    34 1   
    35     7    35 1   
    36     7    36 1   
    37     7    37 1   
    38     8    38 1   
    39     8    39 1   
    40     8    40 1   
    41     9    41 1   
    42     9    42 1   
    43     9    43 1   
    44    13    44 1   
    45    14    45 1   
    46    20    46 1   
    47    20    47 1   
    48    15    48 1   
    49    15    49 1   
    50    15    50 1   
    51    17    51 1   
    52    18    52 1   
    53    21    53 1   
    54    21    54 1   
    55    22    55 1   
    56    22    56 1   
    57    24    57 1   
    58    28    58 1   
    59    25    59 1   
    60    26    60 1   
    61    27    61 1   
@<TRIPOS>SUBSTRUCTURE
     1 023         1 TEMP              0 ****  ****    0 ROOT
