@<TRIPOS>MOLECULE
023
   64    64     1     0     0
SMALL
bcc


@<TRIPOS>ATOM
      1 C25          0.4920     0.5350    -0.7680 c3         1 023       0.076100
      2 N18          1.9550     0.2410    -0.7180 ny         1 023      -0.651800
      3 C14          2.5840     0.6500     0.5760 c          1 023       0.514100
      4 O19          2.0890     1.5790     1.2000 o          1 023      -0.373100
      5 C10          3.8340    -0.1160     1.0360 c3         1 023       0.055500
      6 C15          3.4310    -1.3550     1.9180 c3         1 023      -0.052000
      7 C22          4.6760    -2.1960     2.1650 c3         1 023      -0.135100
      8 C21          2.8280    -0.9030     3.2370 c3         1 023      -0.135100
      9 C20          2.4220    -2.1940     1.1500 c3         1 023      -0.135100
     10 N5           4.7440     0.8030     1.8100 ny         1 023      -0.690800
     11 C2           5.5010     1.8300     0.9850 c          1 023       0.568100
     12 O6           5.2250     1.8650    -0.2030 o          1 023      -0.426100
     13 C1           6.4550     2.7270     1.7560 c3         1 023      -0.130700
     14 C3           7.6920     3.0330     0.8680 c3         1 023       0.169500
     15 C8           8.3580     1.7420     0.4050 c3         1 023      -0.160100
     16 N7           8.7260     3.9190     1.5730 nx         1 023      -0.420700
     17 O12          8.6490     3.6710     2.9020 oh         1 023      -0.384300
     18 C11          8.5490     5.4230     1.2220 c          1 023       0.545900
     19 O16          8.2790     6.1570     2.1400 o          1 023      -0.320100
     20 C4           5.6980     4.0010     2.1370 c3         1 023      -0.114400
     21 C9           4.4570     3.7340     2.9620 c3         1 023      -0.096400
     22 C13          3.9300     5.0200     3.5860 c3         1 023      -0.020100
     23 C17          2.7150     4.7510     4.4020 ca         1 023      -0.137300
     24 C23          2.8320     4.1260     5.6490 ca         1 023      -0.130000
     25 C26          1.7040     3.9250     6.4420 ca         1 023      -0.116000
     26 C28          0.4510     4.3480     5.9950 ca         1 023      -0.098000
     27 C27          0.3300     4.9720     4.7530 ca         1 023      -0.116000
     28 C24          1.4580     5.1740     3.9570 ca         1 023      -0.130000
     29 H251         0.3150     1.6280    -0.5680 hx         1 023       0.136700
     30 H252         0.1100     0.2680    -1.7940 hx         1 023       0.136700
     31 H253        -0.0410    -0.0790     0.0090 hx         1 023       0.136700
     32 H18          2.4230     0.7570    -1.4820 hn         1 023       0.484300
     33 H10          4.4180    -0.4890     0.1390 hx         1 023       0.141700
     34 H5           5.4260     0.2060     2.3090 hn         1 023       0.497800
     35 H221         5.2070    -2.4300     1.2110 hc         1 023       0.078144
     36 H222         4.3720    -3.1720     2.6320 hc         1 023       0.078144
     37 H223         5.3820    -1.7100     2.8810 hc         1 023       0.078144
     38 H211         2.3210    -1.7740     3.7320 hc         1 023       0.078144
     39 H212         3.6090    -0.5380     3.9480 hc         1 023       0.078144
     40 H213         2.0610    -0.1050     3.0860 hc         1 023       0.078144
     41 H201         1.4270    -1.6890     1.0950 hc         1 023       0.078144
     42 H202         2.2580    -3.1610     1.7000 hc         1 023       0.078144
     43 H203         2.7980    -2.4610     0.1330 hc         1 023       0.078144
     44 H1           6.8090     2.2130     2.6990 hc         1 023       0.130700
     45 H3           7.3490     3.6290    -0.0330 hx         1 023       0.122700
     46 H41C         5.4210     4.5720     1.2110 hc         1 023       0.091700
     47 H42C         6.3910     4.6460     2.7480 hc         1 023       0.091700
     48 H81C         9.2520     1.9460    -0.2420 hc         1 023       0.095700
     49 H82C         8.6870     1.1150     1.2710 hc         1 023       0.095700
     50 H83C         7.6380     1.1610    -0.2230 hc         1 023       0.095700
     51 H12          9.1360     4.3790     3.3950 ho         1 023       0.502000
     52 H11          8.7310     5.6140     0.1390 hx         1 023       0.174200
     53 H91C         3.6460     3.3040     2.3130 hc         1 023       0.034200
     54 H92C         4.6860     3.0100     3.7890 hc         1 023       0.034200
     55 H131         3.7000     5.7610     2.7750 hc         1 023       0.069200
     56 H132         4.7260     5.4700     4.2400 hc         1 023       0.069200
     57 H23          3.8220     3.8260     6.0230 ha         1 023       0.127000
     58 H24          1.3580     5.6960     2.9940 ha         1 023       0.127000
     59 H26          1.8040     3.4540     7.4330 ha         1 023       0.157000
     60 H28         -0.4380     4.2080     6.6310 ha         1 023       0.164000
     61 H27         -0.6550     5.3290     4.4100 ha         1 023       0.157000
     62 H182         2.1010    -0.7700    -0.8710 hn         1 023       0.484300
     63 H52          4.1810     1.3050     2.5280 hn         1 023       0.497800
     64 H71          9.6680     3.6200     1.2330 hn         1 023       0.486800
@<TRIPOS>BOND
     1     1     2 1   
     2     1    29 1   
     3     1    30 1   
     4     1    31 1   
     5     2     3 1   
     6     2    32 1   
     7     2    62 1   
     8     3     4 2   
     9     3     5 1   
    10     5     6 1   
    11     5    10 1   
    12     5    33 1   
    13     6     7 1   
    14     6     8 1   
    15     6     9 1   
    16     7    35 1   
    17     7    36 1   
    18     7    37 1   
    19     8    38 1   
    20     8    39 1   
    21     8    40 1   
    22     9    41 1   
    23     9    42 1   
    24     9    43 1   
    25    10    11 1   
    26    10    34 1   
    27    10    63 1   
    28    11    12 2   
    29    11    13 1   
    30    13    14 1   
    31    13    20 1   
    32    13    44 1   
    33    14    15 1   
    34    14    16 1   
    35    14    45 1   
    36    15    48 1   
    37    15    49 1   
    38    15    50 1   
    39    16    17 1   
    40    16    18 1   
    41    16    64 1   
    42    17    51 1   
    43    18    19 2   
    44    18    52 1   
    45    20    21 1   
    46    20    46 1   
    47    20    47 1   
    48    21    22 1   
    49    21    53 1   
    50    21    54 1   
    51    22    23 1   
    52    22    55 1   
    53    22    56 1   
    54    23    24 ar  
    55    23    28 ar  
    56    24    25 ar  
    57    24    57 1   
    58    25    26 ar  
    59    25    59 1   
    60    26    27 ar  
    61    26    60 1   
    62    27    28 ar  
    63    27    61 1   
    64    28    58 1   
@<TRIPOS>SUBSTRUCTURE
     1 023         1 TEMP              0 ****  ****    0 ROOT
