@<TRIPOS>MOLECULE
molecule
   45    47     1     0     0
SMALL
bcc


@<TRIPOS>ATOM
      1 S1           0.0000     0.0000     0.0000 ss         1 024      -0.197800
      2 C2           1.7850     0.0000     0.0000 cc         1 024       0.061300
      3 C3           2.0790     0.0000     1.3630 cd         1 024       0.050100
      4 C4           1.0360     0.0090     2.2550 cd         1 024      -0.019900
      5 C5          -0.2590     0.0100     1.7660 cc         1 024      -0.056100
      6 C6           2.6730    -0.0070    -1.1000 c          1 024       0.892200
      7 O7           3.8760    -0.0050    -0.9110 o          1 024      -0.807800
      8 O8           2.1870    -0.0150    -2.3600 o          1 024      -0.807800
      9 C9          -1.5320     0.0180     2.5160 ca         1 024       0.099000
     10 C10         -2.6080    -0.7520     2.0750 ca         1 024      -0.199000
     11 C11         -3.7980    -0.7450     2.7880 ca         1 024       0.189600
     12 C12         -3.9190     0.0380     3.9300 ca         1 024      -0.238000
     13 C13         -2.8540     0.8060     4.3640 ca         1 024      -0.098000
     14 C14         -1.6640     0.8000     3.6650 ca         1 024      -0.165000
     15 Br19         1.3630     0.0170     4.1180 br         1 024      -0.117100
     16 O20          3.3660    -0.0020     1.7960 os         1 024      -0.255900
     17 C21          3.7520    -1.3710     1.9360 c3         1 024       0.020400
     18 C22          5.1780    -1.4430     2.4170 c          1 024       0.907600
     19 O25          5.7580    -2.6360     2.6200 o          1 024      -0.855300
     20 O26          5.8000    -0.4270     2.6210 o          1 024      -0.855300
     21 N27         -4.8770    -1.5180     2.3540 nu         1 024      -0.834600
     22 C28         -6.1370    -1.5040     3.1030 c3         1 024       0.250500
     23 C30         -7.2900    -1.8770     2.1690 c3         1 024      -0.096900
     24 C31         -8.6040    -1.8630     2.9500 c3         1 024      -0.078400
     25 C32         -8.5280    -2.8750     4.0950 c3         1 024      -0.081400
     26 C33         -7.3750    -2.5020     5.0300 c3         1 024      -0.078400
     27 C34         -6.0600    -2.5170     4.2480 c3         1 024      -0.096900
     28 H10         -2.5120    -1.3610     1.1850 ha         1 024       0.139000
     29 H12         -4.8500     0.0450     4.4840 ha         1 024       0.110000
     30 H13         -2.9540     1.4140     5.2550 ha         1 024       0.111000
     31 H14         -0.8320     1.4030     4.0080 ha         1 024       0.151000
     32 H211         3.1040    -1.8580     2.6540 h1         1 024       0.025700
     33 H212         3.6690    -1.8690     0.9780 h1         1 024       0.025700
     34 HN27        -4.7960    -2.0660     1.5210 hn         1 024       0.434800
     35 H28         -6.3090    -0.5150     3.5090 h1         1 024       0.057700
     36 H301        -7.3440    -1.1580     1.3600 hc         1 024       0.049700
     37 H302        -7.1210    -2.8680     1.7660 hc         1 024       0.049700
     38 H311        -9.4190    -2.1290     2.2880 hc         1 024       0.036950
     39 H312        -8.7710    -0.8720     3.3560 hc         1 024       0.036950
     40 H321        -8.3560    -3.8650     3.6900 hc         1 024       0.034700
     41 H322        -9.4580    -2.8620     4.6490 hc         1 024       0.034700
     42 H331        -7.3200    -3.2200     5.8390 hc         1 024       0.036950
     43 H332        -7.5440    -1.5100     5.4310 hc         1 024       0.036950
     44 H341        -5.8940    -3.5070     3.8420 hc         1 024       0.049700
     45 H342        -5.2450    -2.2500     4.9100 hc         1 024       0.049700
@<TRIPOS>BOND
     1     1     2 1
     2     1     5 1
     3     2     3 2
     4     2     6 1
     5     3     4 1
     6     3    16 1
     7     4     5 2
     8     4    15 1
     9     5     9 1
    10     6     7 1
    11     6     8 1
    12     9    10 ar
    13     9    14 ar
    14    10    11 ar
    15    10    28 1
    16    11    12 ar
    17    11    21 1
    18    12    13 ar
    19    12    29 1
    20    13    14 ar
    21    13    30 1
    22    14    31 1
    23    16    17 1
    24    17    18 1
    25    17    32 1
    26    17    33 1
    27    18    19 1
    28    18    20 1
    29    21    22 1
    30    21    34 1
    31    22    23 1
    32    22    27 1
    33    22    35 1
    34    23    24 1
    35    23    36 1
    36    23    37 1
    37    24    25 1
    38    24    38 1
    39    24    39 1
    40    25    26 1
    41    25    40 1
    42    25    41 1
    43    26    27 1
    44    26    42 1
    45    26    43 1
    46    27    44 1
    47    27    45 1
@<TRIPOS>SUBSTRUCTURE
     1 024         1 TEMP              0 ****  ****    0 ROOT
