@<TRIPOS>MOLECULE
024
   45    47     1     0     0
SMALL
bcc


@<TRIPOS>ATOM
      1 S1          -0.0250    -0.6730     0.3620 ss         1 024       0.035200
      2 C2           1.6430    -0.6300     0.4670 cc         1 024      -0.173700
      3 C3           2.0560    -0.2890     1.7470 cd         1 024       0.139100
      4 C4           0.9250    -0.0840     2.6270 cd         1 024      -0.046900
      5 C5          -0.2840    -0.2840     1.9670 cc         1 024      -0.157100
      6 C6           2.4290    -0.9740    -0.7840 c          1 024       0.939200
      7 O7           2.3740    -0.1580    -1.7480 o          1 024      -0.818300
      8 O8           3.0240    -2.0830    -0.8270 o          1 024      -0.818300
      9 C9          -1.6150    -0.1860     2.5160 ca         1 024       0.076000
     10 C10         -1.9600    -0.8720     3.6870 ca         1 024      -0.160000
     11 C11         -3.2590    -0.7800     4.2290 ca         1 024       0.089600
     12 C12         -4.2190     0.0100     3.5650 ca         1 024      -0.174000
     13 C13         -3.8740     0.6810     2.3950 ca         1 024      -0.126000
     14 C14         -2.5900     0.5930     1.8690 ca         1 024      -0.151000
     15 Br19         1.0580     0.4330     4.4070 br         1 024      -0.106100
     16 O20          3.2980    -0.1200     2.2800 os         1 024      -0.287900
     17 C21          4.4140    -0.2480     1.3810 c3         1 024       0.005400
     18 C22          5.6770     0.1140     2.2010 c          1 024       0.917600
     19 O25          6.1400     1.2850     2.0890 o          1 024      -0.851800
     20 O26          6.2230    -0.7880     2.8990 o          1 024      -0.851800
     21 N27         -3.6200    -1.5430     5.3760 nu         1 024      -0.700600
     22 C28         -4.1240    -0.7750     6.5100 c3         1 024       0.183500
     23 C30         -4.7630    -1.7050     7.5560 c3         1 024      -0.095900
     24 C31         -5.3910    -0.8940     8.6710 c3         1 024      -0.072900
     25 C32         -4.3770     0.0100     9.3400 c3         1 024      -0.077400
     26 C33         -3.6950     0.9070     8.3280 c3         1 024      -0.072900
     27 C34         -3.0700     0.1020     7.2100 c3         1 024      -0.095900
     28 H10         -1.1920    -1.4920     4.1780 ha         1 024       0.148000
     29 H12         -5.2420     0.0930     3.9570 ha         1 024       0.115000
     30 H13         -4.6310     1.2940     1.8830 ha         1 024       0.111000
     31 H14         -2.3250     1.1350     0.9500 ha         1 024       0.141000
     32 H211         4.4600    -1.3030     1.0080 h1         1 024       0.053700
     33 H212         4.2780     0.4550     0.5210 h1         1 024       0.053700
     34 HN27        -2.8520    -2.1230     5.6670 hn         1 024       0.369800
     35 H28         -4.9330    -0.0910     6.1160 h1         1 024       0.056700
     36 H301        -5.5470    -2.3410     7.0700 hc         1 024       0.049950
     37 H302        -3.9840    -2.3890     7.9810 hc         1 024       0.049950
     38 H311        -5.8340    -1.5890     9.4310 hc         1 024       0.033950
     39 H312        -6.2280    -0.2730     8.2560 hc         1 024       0.033950
     40 H321        -4.8860     0.6360    10.1180 hc         1 024       0.031700
     41 H322        -3.6060    -0.6160     9.8620 hc         1 024       0.031700
     42 H331        -4.4440     1.6240     7.8990 hc         1 024       0.033950
     43 H332        -2.9020     1.5140     8.8380 hc         1 024       0.033950
     44 H341        -2.6040     0.7950     6.4610 hc         1 024       0.049950
     45 H342        -2.2530    -0.5460     7.6220 hc         1 024       0.049950
@<TRIPOS>BOND
     1     1     2 1   
     2     1     5 1   
     3     2     3 2   
     4     2     6 1   
     5     3     4 1   
     6     3    16 1   
     7     4     5 2   
     8     4    15 1   
     9     5     9 1   
    10     6     7 1   
    11     6     8 1   
    12     9    10 ar  
    13     9    14 ar  
    14    10    11 ar  
    15    10    28 1   
    16    11    12 ar  
    17    11    21 1   
    18    12    13 ar  
    19    12    29 1   
    20    13    14 ar  
    21    13    30 1   
    22    14    31 1   
    23    16    17 1   
    24    17    18 1   
    25    17    32 1   
    26    17    33 1   
    27    18    19 1   
    28    18    20 1   
    29    21    22 1   
    30    21    34 1   
    31    22    23 1   
    32    22    27 1   
    33    22    35 1   
    34    23    24 1   
    35    23    36 1   
    36    23    37 1   
    37    24    25 1   
    38    24    38 1   
    39    24    39 1   
    40    25    26 1   
    41    25    40 1   
    42    25    41 1   
    43    26    27 1   
    44    26    42 1   
    45    26    43 1   
    46    27    44 1   
    47    27    45 1   
@<TRIPOS>SUBSTRUCTURE
     1 024         1 TEMP              0 ****  ****    0 ROOT
