@<TRIPOS>MOLECULE
molecule
   18    18     1     0     0
SMALL
bcc


@<TRIPOS>ATOM
      1 C1           0.0000     0.0000     0.0000 ca         1 025      -0.258500
      2 S11         -0.8810     0.0000    -1.5260 s6         1 025       1.318100
      3 O24         -2.1640     0.5440    -1.2480 o          1 025      -0.704533
      4 O25          0.0010     0.5470    -2.4980 o          1 025      -0.704533
      5 C2           1.3830     0.0000     0.0000 ca         1 025      -0.010000
      6 C3           2.0740     0.0000     1.1980 ca         1 025      -0.176000
      7 C4           1.3820    -0.0020     2.3940 ca         1 025      -0.077000
      8 C5          -0.0000    -0.0020     2.3940 ca         1 025      -0.220300
      9 C6          -0.7540    -0.0040     3.6990 c3         1 025       0.671200
     10 F61          0.1550    -0.0050     4.7620 f          1 025      -0.234633
     11 F1          -1.5580     1.1390     3.7750 f          1 025      -0.234633
     12 F6          -1.5580    -1.1460     3.7720 f          1 025      -0.234633
     13 C10         -0.6910     0.0040     1.1980 ca         1 025       0.012000
     14 H2           1.9240     0.0020    -0.9380 ha         1 025       0.154000
     15 H3           3.1570    -0.0000     1.1980 ha         1 025       0.118000
     16 H4           1.9240    -0.0020     3.3320 ha         1 025       0.124000
     17 H10         -1.7750     0.0040     1.1980 ha         1 025       0.162000
     18 O1          -1.1060    -1.4530    -1.9180 o          1 025      -0.704533
@<TRIPOS>BOND
     1     1     2 1   
     2     1     5 ar  
     3     1    13 ar  
     4     2     3 1   
     5     2     4 1   
     6     5     6 ar  
     7     5    14 1   
     8     6     7 ar  
     9     6    15 1   
    10     7     8 ar  
    11     7    16 1   
    12     8     9 1   
    13     8    13 ar  
    14     9    10 1   
    15     9    11 1   
    16     9    12 1   
    17    13    17 1   
    18     2    18 1   
@<TRIPOS>SUBSTRUCTURE
     1 025         1 TEMP              0 ****  ****    0 ROOT
