@<TRIPOS>MOLECULE
026
   28    28     1     0     0
SMALL
bcc


@<TRIPOS>ATOM
      1 N26          0.0000     0.0000     0.0000 n7         1 026      -0.580200
      2 C27          1.4690     0.0000     0.0000 c3         1 026       0.149300
      3 C28          1.9770     0.0000     1.4440 c3         1 026       0.151800
      4 N29          1.4540    -1.1810     2.1440 n3         1 026      -0.544600
      5 C30         -0.0160    -1.1810     2.1450 c3         1 026       0.151800
      6 C31         -0.5240    -1.1810     0.7010 c3         1 026       0.149300
      7 C32          1.9810    -1.2570     3.5140 c3         1 026       0.169800
      8 C33          1.6210    -2.6130     4.1240 c3         1 026      -0.049400
      9 C8           2.1680    -2.6920     5.5500 c3         1 026      -0.052200
     10 N9           1.8230    -3.9930     6.1360 nz         1 026       0.087400
     11 H271         1.8290    -0.8860    -0.5080 h1         1 026       0.017950
     12 H272         1.8290     0.8860    -0.5080 h1         1 026       0.017950
     13 H281         3.0600    -0.0310     1.4450 h1         1 026       0.015200
     14 H282         1.6360     0.8970     1.9460 h1         1 026       0.015200
     15 H301        -0.3760    -0.2960     2.6540 h1         1 026       0.015200
     16 H302        -0.3750    -2.0680     2.6530 h1         1 026       0.015200
     17 H311        -0.1820    -2.0790     0.1990 h1         1 026       0.017950
     18 H312        -1.6060    -1.1500     0.7000 h1         1 026       0.017950
     19 H321         1.5470    -0.4650     4.1120 h1         1 026       0.019700
     20 H322         3.0580    -1.1450     3.4930 h1         1 026       0.019700
     21 H331         0.5430    -2.7250     4.1440 hc         1 026       0.043700
     22 H332         2.0550    -3.4050     3.5260 hc         1 026       0.043700
     23 H8C1         3.2460    -2.5790     5.5300 hx         1 026       0.085200
     24 H8C2         1.7340    -1.9000     6.1480 hx         1 026       0.085200
     25 H9N1         0.8280    -4.1000     6.1490 hn         1 026       0.223467
     26 H9N2         2.2310    -4.7250     5.5880 hn         1 026       0.223467
     27 H2          -0.3340     0.0030    -0.9440 hn         1 026       0.267800
     28 H93          2.1730    -4.0410     7.0730 hn         1 026       0.223467
@<TRIPOS>BOND
     1     1     2 1   
     2     1     6 1   
     3     1    27 1   
     4     2     3 1   
     5     2    11 1   
     6     2    12 1   
     7     3     4 1   
     8     3    13 1   
     9     3    14 1   
    10     4     5 1   
    11     4     7 1   
    12     5     6 1   
    13     5    15 1   
    14     5    16 1   
    15     6    17 1   
    16     6    18 1   
    17     7     8 1   
    18     7    19 1   
    19     7    20 1   
    20     8     9 1   
    21     8    21 1   
    22     8    22 1   
    23     9    10 1   
    24     9    23 1   
    25     9    24 1   
    26    10    25 1   
    27    10    26 1   
    28    10    28 1   
@<TRIPOS>SUBSTRUCTURE
     1 026         1 TEMP              0 ****  ****    0 ROOT
