@<TRIPOS>MOLECULE
026
   28    28     1     0     0
SMALL
bcc


@<TRIPOS>ATOM
      1 N26         -0.2260    -0.2530    -0.0150 n7         1 026      -0.827200
      2 C27          1.2180    -0.2270     0.0000 c3         1 026       0.166800
      3 C28          1.7850    -0.0820     1.4280 c3         1 026       0.146300
      4 N29          1.2270    -1.0620     2.3610 n3         1 026      -0.782600
      5 C30         -0.2360    -1.0880     2.3170 c3         1 026       0.146300
      6 C31         -0.7880    -1.2340     0.8840 c3         1 026       0.166800
      7 C32          1.7360    -0.8800     3.7210 c3         1 026       0.136800
      8 C33          1.8070    -2.1900     4.5080 c3         1 026      -0.113400
      9 C8           2.7150    -3.2210     3.8510 c3         1 026       0.113800
     10 N9           2.2080    -3.6540     2.5180 nz         1 026      -0.868600
     11 H271         1.6720    -1.1490    -0.4710 h1         1 026       0.041450
     12 H272         1.5560     0.6670    -0.5970 h1         1 026       0.041450
     13 H281         2.8980    -0.2400     1.3800 h1         1 026       0.056950
     14 H282         1.5960     0.9710     1.7860 h1         1 026       0.056950
     15 H301        -0.6730    -0.1540     2.7770 h1         1 026       0.056950
     16 H302        -0.5860    -1.9680     2.9240 h1         1 026       0.056950
     17 H311        -0.6060    -2.2940     0.5370 h1         1 026       0.041450
     18 H312        -1.9020    -1.0710     0.9240 h1         1 026       0.041450
     19 H321         1.0980    -0.1570     4.3110 h1         1 026       0.072200
     20 H322         2.7730    -0.4400     3.6690 h1         1 026       0.072200
     21 H331         0.7800    -2.6120     4.6670 hc         1 026       0.089700
     22 H332         2.2370    -1.9630     5.5220 hc         1 026       0.089700
     23 H8C1         3.7410    -2.7780     3.6970 hx         1 026       0.102700
     24 H8C2         2.8110    -4.1310     4.5110 hx         1 026       0.102700
     25 H9N1         1.4290    -4.3040     2.6290 hn         1 026       0.465800
     26 H9N2         2.9480    -4.1040     1.9810 hn         1 026       0.465800
     27 H2          -0.5830    -0.3570    -0.9450 hn         1 026       0.395800
     28 H93          1.8560    -2.7900     2.0120 hn         1 026       0.465800
@<TRIPOS>BOND
     1     1     2 1   
     2     1     6 1   
     3     1    27 1   
     4     2     3 1   
     5     2    11 1   
     6     2    12 1   
     7     3     4 1   
     8     3    13 1   
     9     3    14 1   
    10     4     5 1   
    11     4     7 1   
    12     5     6 1   
    13     5    15 1   
    14     5    16 1   
    15     6    17 1   
    16     6    18 1   
    17     7     8 1   
    18     7    19 1   
    19     7    20 1   
    20     8     9 1   
    21     8    21 1   
    22     8    22 1   
    23     9    10 1   
    24     9    23 1   
    25     9    24 1   
    26    10    25 1   
    27    10    26 1   
    28    10    28 1   
@<TRIPOS>SUBSTRUCTURE
     1 026         1 TEMP              0 ****  ****    0 ROOT
