@<TRIPOS>MOLECULE
molecule
   55    58     1     0     0
SMALL
bcc


@<TRIPOS>ATOM
      1 N1           0.0000     0.0000     0.0000 nc         1 027      -0.528300
      2 N2           1.3940     0.0000     0.0000 n          1 027      -0.202800
      3 C3          -0.7050     0.0010     1.1000 cd         1 027       0.642800
      4 C4           2.1050     0.0000     1.1470 c          1 027       0.681100
      5 C5           1.3850     0.0010     2.4280 ca         1 027      -0.093600
      6 C6          -0.0270     0.0020     2.4020 ca         1 027      -0.175900
      7 C7          -2.7390     0.0010    -0.2050 cd         1 027       0.590200
      8 N8          -2.0950     0.0010     1.0370 nu         1 027      -0.804900
      9 C9          -2.1100     0.0000    -1.4620 cd         1 027      -0.351300
     10 N10         -4.2710    -0.0090    -1.7820 na         1 027      -0.042600
     11 N11         -4.0370    -0.0050    -0.4010 nc         1 027      -0.568800
     12 N12          1.9860     0.0040     6.0520 nh         1 027      -0.597000
     13 C13          2.0550     0.0020     3.6490 ca         1 027      -0.098000
     14 C14          1.3230     0.0030     4.8240 ca         1 027       0.113600
     15 C15         -3.0750    -0.0000    -2.4080 cc         1 027      -0.068600
     16 C16         -0.7420     0.0030     3.6010 ca         1 027      -0.093000
     17 N17          2.7130     1.0660     8.5920 n3         1 027      -0.735600
     18 O18          3.3230    -0.0010     1.1210 o          1 027      -0.646500
     19 C19          2.1080    -0.0020    -1.2790 c3         1 027       0.131700
     20 C20         -0.0710     0.0030     4.7900 ca         1 027      -0.164000
     21 C21          1.0280     0.0050     7.1680 c3         1 027       0.163800
     22 C22          2.9080     1.1430     6.1530 c3         1 027       0.163800
     23 C23          3.6710     1.0650     7.4770 c3         1 027       0.160800
     24 C24          1.7910    -0.0740     8.4920 c3         1 027       0.160800
     25 C25          3.4110     1.0670     9.8850 c3         1 027       0.153100
     26 C26         -2.8550    -0.0000    -3.8990 c3         1 027      -0.027800
     27 C27          1.7260    -1.2510    -2.0750 c3         1 027      -0.102100
     28 C28          1.7260     1.2480    -2.0770 c3         1 027      -0.102100
     29 HN8         -2.6340     0.0030     1.8800 hn         1 027       0.466800
     30 H9          -1.0420     0.0060    -1.6400 ha         1 027       0.198000
     31 H13          3.1270    -0.1570     3.6780 ha         1 027       0.170000
     32 H16         -1.8250     0.0030     3.5880 ha         1 027       0.131000
     33 H19          3.1750    -0.0020    -1.0970 h1         1 027       0.096700
     34 H20         -0.6290    -0.0020     5.7190 ha         1 027       0.143000
     35 H21          0.4460     0.9190     7.1420 h1         1 027       0.052700
     36 H21A         0.3700    -0.8510     7.0790 h1         1 027       0.052700
     37 H22          2.3430     2.0670     6.1170 h1         1 027       0.052700
     38 H22A         3.6110     1.1110     5.3300 h1         1 027       0.052700
     39 H23          4.3280     1.9210     7.5660 h1         1 027       0.044950
     40 H23A         4.2530     0.1520     7.5040 h1         1 027       0.044950
     41 H24          1.0880    -0.0420     9.3150 h1         1 027       0.044950
     42 H24A         2.3550    -0.9980     8.5280 h1         1 027       0.044950
     43 H25          4.0560     1.9340     9.9470 h1         1 027       0.034033
     44 H25A         2.6840     1.1000    10.6870 h1         1 027       0.034033
     45 H25B         4.0060     0.1660     9.9750 h1         1 027       0.034033
     46 H26         -3.8130     0.0060    -4.4060 hc         1 027       0.050367
     47 H26A        -2.2920     0.8810    -4.1810 hc         1 027       0.050367
     48 H26B        -2.3030    -0.8880    -4.1820 hc         1 027       0.050367
     49 H27          1.5720    -2.0790    -1.3940 hc         1 027       0.043533
     50 H27A         0.8120    -1.0620    -2.6260 hc         1 027       0.043533
     51 H27B         2.5220    -1.4950    -2.7670 hc         1 027       0.043533
     52 H28          2.4840     1.4440    -2.8260 hc         1 027       0.043533
     53 H28A         0.7710     1.0880    -2.5640 hc         1 027       0.043533
     54 H28B         1.6520     2.0960    -1.4070 hc         1 027       0.043533
     55 HN10        -5.1680    -0.0120    -2.2260 hn         1 027       0.328700
@<TRIPOS>BOND
     1     3     1 2   
     2     2     1 1   
     3     4     2 1   
     4     2    19 1   
     5     6     3 1   
     6     3     8 1   
     7     5     4 1   
     8    18     4 2   
     9    13     5 ar  
    10     5     6 ar  
    11    16     6 ar  
    12     8     7 1   
    13    11     7 2   
    14     7     9 1   
    15     8    29 1   
    16     9    15 2   
    17     9    30 1   
    18    11    10 1   
    19    10    15 1   
    20    22    12 1   
    21    12    21 1   
    22    12    14 1   
    23    14    13 ar  
    24    13    31 1   
    25    14    20 ar  
    26    15    26 1   
    27    20    16 ar  
    28    16    32 1   
    29    25    17 1   
    30    23    17 1   
    31    17    24 1   
    32    19    27 1   
    33    19    28 1   
    34    19    33 1   
    35    20    34 1   
    36    24    21 1   
    37    21    35 1   
    38    21    36 1   
    39    23    22 1   
    40    22    37 1   
    41    22    38 1   
    42    23    39 1   
    43    23    40 1   
    44    24    41 1   
    45    24    42 1   
    46    25    43 1   
    47    25    44 1   
    48    25    45 1   
    49    26    46 1   
    50    26    47 1   
    51    26    48 1   
    52    27    49 1   
    53    27    50 1   
    54    27    51 1   
    55    28    52 1   
    56    28    53 1   
    57    28    54 1   
    58    10    55 1   
@<TRIPOS>SUBSTRUCTURE
     1 027         1 TEMP              0 ****  ****    0 ROOT
