@<TRIPOS>MOLECULE
027
   55    58     1     0     0
SMALL
bcc


@<TRIPOS>ATOM
      1 N1          -0.0390    -0.7540    -0.0590 nc         1 027      -0.468300
      2 N2           1.2910    -0.7790    -0.0420 n          1 027      -0.199800
      3 C3          -0.7350    -0.6320     1.0740 cd         1 027       0.527800
      4 C4           2.0720    -0.7330     1.1390 c          1 027       0.683100
      5 C5           1.3230    -0.6230     2.4120 ca         1 027      -0.106600
      6 C6          -0.0810    -0.5590     2.3930 ca         1 027      -0.135900
      7 C7          -2.8090    -0.3740    -0.1790 cc         1 027       0.493200
      8 N8          -2.1610    -0.5310     1.0650 nu         1 027      -0.713900
      9 C9          -2.6060     0.7410    -1.0930 cc         1 027      -0.263300
     10 N10         -4.2290    -0.6400    -1.7970 na         1 027      -0.013600
     11 N11         -3.8110    -1.1950    -0.6660 nd         1 027      -0.550800
     12 N12          2.0330    -0.3040     6.0750 nh         1 027      -0.636000
     13 C13          2.0330    -0.5800     3.6160 ca         1 027      -0.135000
     14 C14          1.3540    -0.4500     4.8420 ca         1 027       0.141600
     15 C15         -3.5380     0.5370    -2.1220 cd         1 027      -0.099600
     16 C16         -0.7610    -0.4240     3.6130 ca         1 027      -0.093000
     17 N17          3.6740    -0.7070     8.4410 n3         1 027      -0.732600
     18 O18          3.3160    -0.7810     1.0830 o          1 027      -0.633500
     19 C19          1.9780    -0.8470    -1.3550 c3         1 027       0.124700
     20 C20         -0.0650    -0.3700     4.8090 ca         1 027      -0.137000
     21 C21          3.4790    -0.1790     6.0050 c3         1 027       0.184800
     22 C22          1.5910    -1.1850     7.1470 c3         1 027       0.184800
     23 C23          2.2240    -0.8230     8.5050 c3         1 027       0.164800
     24 C24          4.1050     0.1770     7.3690 c3         1 027       0.164800
     25 C25          4.2580    -0.3590     9.7160 c3         1 027       0.157100
     26 C26         -3.7960     1.3450    -3.3230 c3         1 027      -0.034800
     27 C27          1.6160    -2.1030    -2.1430 c3         1 027      -0.104600
     28 C28          1.7170     0.3860    -2.2170 c3         1 027      -0.104600
     29 HN8         -2.5550    -1.2780     1.6130 hn         1 027       0.406800
     30 H9          -1.8800     1.5380    -0.9910 ha         1 027       0.173000
     31 H13          3.1330    -0.6500     3.5620 ha         1 027       0.165000
     32 H16         -1.8590    -0.3400     3.6360 ha         1 027       0.148000
     33 H19          3.0840    -0.8850    -1.1130 h1         1 027       0.091700
     34 H20         -0.6330    -0.2420     5.7440 ha         1 027       0.142000
     35 H21          3.7280     0.6540     5.2900 h1         1 027       0.047700
     36 H21A         3.9580    -1.1290     5.6260 h1         1 027       0.047700
     37 H22          1.8340    -2.2620     6.9090 h1         1 027       0.047700
     38 H22A         0.4760    -1.0950     7.2590 h1         1 027       0.047700
     39 H23          1.9760    -1.6510     9.2270 h1         1 027       0.040450
     40 H23A         1.7450     0.1260     8.8860 h1         1 027       0.040450
     41 H24          3.8750     1.2580     7.6010 h1         1 027       0.040450
     42 H24A         5.2210     0.0750     7.2660 h1         1 027       0.040450
     43 H25          3.9550    -1.1280    10.4730 h1         1 027       0.033700
     44 H25A         5.3750    -0.3720     9.6150 h1         1 027       0.033700
     45 H25B         3.9450     0.6540    10.0900 h1         1 027       0.033700
     46 H26         -4.8530     1.7130    -3.3390 hc         1 027       0.053367
     47 H26A        -3.1120     2.2290    -3.3290 hc         1 027       0.053367
     48 H26B        -3.6150     0.7490    -4.2530 hc         1 027       0.053367
     49 H27          0.5470    -2.0870    -2.4620 hc         1 027       0.045700
     50 H27A         2.2610    -2.1460    -3.0540 hc         1 027       0.045700
     51 H27B         1.7950    -3.0220    -1.5360 hc         1 027       0.045700
     52 H28          1.9910     1.3210    -1.6730 hc         1 027       0.045700
     53 H28A         0.6440     0.4470    -2.5190 hc         1 027       0.045700
     54 H28B         2.3450     0.3120    -3.1380 hc         1 027       0.045700
     55 HN10        -4.9730    -1.0530    -2.3070 hn         1 027       0.319700
@<TRIPOS>BOND
     1     1     2 1   
     2     1     3 2   
     3     2     4 1   
     4     2    19 1   
     5     3     6 1   
     6     3     8 1   
     7     4     5 1   
     8     4    18 2   
     9     5     6 ar  
    10     5    13 ar  
    11     6    16 ar  
    12     7     8 1   
    13     7     9 1   
    14     7    11 2   
    15     8    29 1   
    16     9    15 2   
    17     9    30 1   
    18    10    11 1   
    19    10    15 1   
    20    10    55 1   
    21    12    14 1   
    22    12    21 1   
    23    12    22 1   
    24    13    14 ar  
    25    13    31 1   
    26    14    20 ar  
    27    15    26 1   
    28    16    20 ar  
    29    16    32 1   
    30    17    23 1   
    31    17    24 1   
    32    17    25 1   
    33    19    27 1   
    34    19    28 1   
    35    19    33 1   
    36    20    34 1   
    37    21    24 1   
    38    21    35 1   
    39    21    36 1   
    40    22    23 1   
    41    22    37 1   
    42    22    38 1   
    43    23    39 1   
    44    23    40 1   
    45    24    41 1   
    46    24    42 1   
    47    25    43 1   
    48    25    44 1   
    49    25    45 1   
    50    26    46 1   
    51    26    47 1   
    52    26    48 1   
    53    27    49 1   
    54    27    50 1   
    55    27    51 1   
    56    28    52 1   
    57    28    53 1   
    58    28    54 1   
@<TRIPOS>SUBSTRUCTURE
     1 027         1 TEMP              0 ****  ****    0 ROOT
