@<TRIPOS>MOLECULE
028
   30    29     1     0     0
SMALL
bcc


@<TRIPOS>ATOM
      1 CAA         -0.0370    -1.2910     1.4060 c3         1 028       0.075000
      2 CAI          1.3700    -1.0970     1.3340 c2         1 028      -0.801000
      3 CAJ          1.9630     0.0490     0.6490 c3         1 028       0.037000
      4 CAK          3.4740     0.1740     0.8160 c3         1 028      -0.139000
      5 CAL          4.0660     1.3610     0.0700 c3         1 028      -0.148000
      6 CAM          5.5820     1.4730     0.2250 c3         1 028      -0.151000
      7 CAN          6.2740     2.5080    -0.6330 c3         1 028      -1.150000
      8 PAO          6.7200     3.8980     0.7950 p5         1 028       1.621500
      9 OAE          7.8010     4.8010     0.2680 o          1 028      -0.933833
     10 OAF          5.3780     4.5890     0.9180 o          1 028      -0.933833
     11 OAB          7.1400     3.1670     2.0440 o          1 028      -0.933833
     12 PAP          7.1870     1.7290    -1.8380 p5         1 028       2.063000
     13 OAG          5.9750     0.9650    -2.7190 oh         1 028      -0.846000
     14 OAH          7.8240     2.5490    -2.9150 o          1 028      -0.924000
     15 OAC          8.0220     0.5810    -1.3620 o          1 028      -0.924000
     16 OAD          5.3580     3.2930    -1.3830 oh         1 028      -0.391000
     17 HAA1        -0.4550    -2.1900     0.8180 hc         1 028      -0.095667
     18 HAA2        -0.6210    -0.4070     1.0300 hc         1 028      -0.095667
     19 HAA3        -0.4360    -1.5210     2.4530 hc         1 028      -0.095667
     20 HAI1         2.0300    -1.8340     1.7860 ha         1 028       0.057000
     21 HAI2         5.1520     1.4260    -2.6310 ho         1 028       0.193000
     22 HAJ1         1.4900     1.0170     0.9980 hc         1 028      -0.032000
     23 HAJ2         1.7400     0.0220    -0.4640 hc         1 028      -0.032000
     24 HAK1         3.9590    -0.7690     0.4540 hc         1 028       0.047000
     25 HAK2         3.7150     0.2670     1.9070 hc         1 028       0.047000
     26 HAL1         3.8030     1.2740    -1.0170 hc         1 028       0.059000
     27 HAL2         3.5940     2.3070     0.4440 hc         1 028       0.059000
     28 HAM1         5.7940     1.6680     1.3150 hc         1 028       0.077500
     29 HAM2         6.0290     0.4640    -0.0090 hc         1 028       0.077500
     30 HOAD         4.8440     3.8380    -0.7620 ho         1 028       0.211000
@<TRIPOS>BOND
     1     1     2 1   
     2     1    17 1   
     3     1    18 1   
     4     1    19 1   
     5     2     3 1   
     6     2    20 1   
     7     3     4 1   
     8     3    22 1   
     9     3    23 1   
    10     4     5 1   
    11     4    24 1   
    12     4    25 1   
    13     5     6 1   
    14     5    26 1   
    15     5    27 1   
    16     6     7 1   
    17     6    28 1   
    18     6    29 1   
    19     7     8 1   
    20     7    12 1   
    21     7    16 1   
    22     8     9 1   
    23     8    10 1   
    24     8    11 1   
    25    12    13 1   
    26    12    14 1   
    27    12    15 1   
    28    13    21 1   
    29    16    30 1   
@<TRIPOS>SUBSTRUCTURE
     1 028         1 TEMP              0 ****  ****    0 ROOT
