@<TRIPOS>MOLECULE
molecule
   30    29     1     0     0
SMALL
bcc


@<TRIPOS>ATOM
      1 CAA          0.0000     0.0000     0.0000 c3         1 028      -0.092100
      2 CAI          1.5300     0.0000     0.0000 c3         1 028      -0.091400
      3 CAJ          2.0400     0.0000     1.4430 c3         1 028      -0.078400
      4 CAK          3.5700    -0.0000     1.4430 c3         1 028      -0.079400
      5 CAL          4.0800    -0.0000     2.8850 c3         1 028      -0.124400
      6 CAM          5.6100    -0.0000     2.8850 c3         1 028       0.003600
      7 CAN          6.1200    -0.0010     4.3290 c3         1 028      -0.174600
      8 PAO          7.9430    -0.0010     4.3290 p5         1 028       1.123200
      9 OAE          8.4360     1.2640     3.7400 o          1 028      -0.948667
     10 OAF          8.4790    -0.1330     5.8410 o          1 028      -0.948667
     11 OAB          8.4790    -1.2430     3.4580 o          1 028      -0.948667
     12 PAP          5.5110     1.4880     5.1880 p5         1 028       1.123200
     13 OAG          3.9010     1.4880     5.1880 o          1 028      -0.948667
     14 OAH          6.0480     1.4870     6.7060 o          1 028      -0.948667
     15 OAC          6.0050     2.6970     4.4900 o          1 028      -0.948667
     16 OAD          5.6430    -1.1670     5.0020 oh         1 028      -0.648800
     17 HAA1        -0.3610     0.8850     0.5110 hc         1 028       0.007367
     18 HAA2        -0.3610    -0.8840     0.5110 hc         1 028       0.007367
     19 HAA3        -0.3610    -0.0000    -1.0210 hc         1 028       0.007367
     20 HAI1         1.8910    -0.8840    -0.5110 hc         1 028       0.021700
     21 HAI2         1.8910     0.8840    -0.5110 hc         1 028       0.021700
     22 HAJ1         1.6790     0.8840     1.9540 hc         1 028       0.038700
     23 HAJ2         1.6790    -0.8840     1.9540 hc         1 028       0.038700
     24 HAK1         3.9310     0.8850     0.9320 hc         1 028       0.003700
     25 HAK2         3.9310    -0.8850     0.9320 hc         1 028       0.003700
     26 HAL1         3.7190    -0.8850     3.3960 hc         1 028       0.085200
     27 HAL2         3.7190     0.8840     3.3960 hc         1 028       0.085200
     28 HAM1         5.9710     0.8850     2.3750 hc         1 028       0.012700
     29 HAM2         5.9710    -0.8840     2.3740 hc         1 028       0.012700
     30 HOAD         6.2020    -1.3560     5.7380 ho         1 028       0.383000
@<TRIPOS>BOND
     1     1     2 1   
     2     1    17 1   
     3     1    18 1   
     4     1    19 1   
     5     2     3 1   
     6     2    20 1   
     7     2    21 1   
     8     3     4 1   
     9     3    22 1   
    10     3    23 1   
    11     4     5 1   
    12     4    24 1   
    13     4    25 1   
    14     5     6 1   
    15     5    26 1   
    16     5    27 1   
    17     6     7 1   
    18     6    28 1   
    19     6    29 1   
    20     7    12 1   
    21     7     8 1   
    22     7    16 1   
    23     8     9 1   
    24     8    10 1   
    25     8    11 1   
    26    12    15 1   
    27    12    14 1   
    28    12    13 1   
    29    16    30 1   
@<TRIPOS>SUBSTRUCTURE
     1 028         1 TEMP              0 ****  ****    0 ROOT
