@<TRIPOS>MOLECULE
molecule
   28    28     1     0     0
SMALL
bcc


@<TRIPOS>ATOM
      1 S20          0.0000     0.0000     0.0000 s6         1 02B       1.336100
      2 O21          1.4210     0.0000     0.0000 o          1 02B      -0.715867
      3 O22         -0.7780     0.0000     1.1890 o          1 02B      -0.715867
      4 C11         -0.4960     1.4200    -0.9190 ca         1 02B      -0.291500
      5 C12         -0.7520     1.3100    -2.2740 ca         1 02B       0.055700
      6 C13         -1.1410     2.4210    -2.9970 ca         1 02B      -0.155300
      7 C14         -1.2750     3.6470    -2.3620 ca         1 02B       0.149100
      8 C15         -1.0180     3.7550    -1.0040 ca         1 02B      -0.259000
      9 C16         -0.6350     2.6400    -0.2840 ca         1 02B       0.038700
     10 C17         -0.6050    -0.0230    -2.9630 c3         1 02B      -0.055800
     11 C18         -1.4190     2.3000    -4.4730 c3         1 02B      -0.030800
     12 C10         -0.3610     2.7540     1.1940 c3         1 02B      -0.061800
     13 O11         -1.6580     4.7420    -3.0720 os         1 02B      -0.342900
     14 C19         -1.7740     5.9720    -2.3530 c3         1 02B       0.133700
     15 H151        -1.0650     4.7230    -0.5180 ha         1 02B       0.114000
     16 H171         0.3170    -0.4940    -2.6450 hc         1 02B       0.058367
     17 H172        -1.4440    -0.6580    -2.7030 hc         1 02B       0.058367
     18 H173        -0.5840     0.1250    -4.0360 hc         1 02B       0.058367
     19 H181        -0.5020     2.0540    -4.9950 hc         1 02B       0.033033
     20 H182        -2.1510     1.5190    -4.6400 hc         1 02B       0.033033
     21 H183        -1.8040     3.2420    -4.8460 hc         1 02B       0.033033
     22 H101        -1.1900     2.3320     1.7480 hc         1 02B       0.050033
     23 H102         0.5480     2.2150     1.4360 hc         1 02B       0.050033
     24 H103        -0.2430     3.7980     1.4600 hc         1 02B       0.050033
     25 H191        -2.5000     5.8570    -1.5580 h1         1 02B       0.031033
     26 H192        -2.0980     6.7550    -3.0280 h1         1 02B       0.031033
     27 H193        -0.8130     6.2350    -1.9300 h1         1 02B       0.031033
     28 O1          -0.4290    -1.2250    -0.7960 o          1 02B      -0.715867
@<TRIPOS>BOND
     1     1     2 1   
     2     1     3 1   
     3     1     4 1   
     4     4     5 ar  
     5     4     9 ar  
     6     5     6 ar  
     7     5    10 1   
     8     6     7 ar  
     9     6    11 1   
    10     7     8 ar  
    11     7    13 1   
    12     8     9 ar  
    13     8    15 1   
    14     9    12 1   
    15    10    16 1   
    16    10    17 1   
    17    10    18 1   
    18    11    19 1   
    19    11    20 1   
    20    11    21 1   
    21    12    22 1   
    22    12    23 1   
    23    12    24 1   
    24    13    14 1   
    25    14    25 1   
    26    14    26 1   
    27    14    27 1   
    28     1    28 1   
@<TRIPOS>SUBSTRUCTURE
     1 02B         1 TEMP              0 ****  ****    0 ROOT
