@<TRIPOS>MOLECULE
02C
   20    20     1     0     0
SMALL
bcc


@<TRIPOS>ATOM
      1 C1           0.0000     0.0000     0.0000 cc         1 02C      -0.023400
      2 C2           1.3500     0.0000     0.0000 cd         1 02C       0.196000
      3 N3           1.8870     0.0000     1.2140 nd         1 02C      -0.534000
      4 C4           1.0560     0.0000     2.1970 cc         1 02C       0.302700
      5 S5          -0.5510    -0.0010     1.6180 ss         1 02C      -0.034300
      6 C6           2.1550     0.0000    -1.2380 cf         1 02C       0.095200
      7 C7           1.4450    -0.0000     3.6530 c3         1 02C      -0.030500
      8 N8           1.5710     1.3840     4.1270 nz         1 02C       0.085400
      9 N28          1.5640    -0.0010    -2.4010 n2         1 02C      -0.408100
     10 N29          3.5320     0.0010    -1.1650 nz         1 02C       0.204400
     11 H1          -0.6310    -0.0000    -0.8810 h4         1 02C       0.189000
     12 H71          0.6840    -0.5120     4.2300 hx         1 02C       0.101700
     13 H72          2.3930    -0.5110     3.7730 hx         1 02C       0.101700
     14 HN8          0.7110     1.8710     3.9660 hn         1 02C       0.232800
     15 HN28         0.5650    -0.0010    -2.4560 hn         1 02C       0.375400
     16 H291         3.8400     0.8190    -0.6770 hn         1 02C       0.226800
     17 H292         3.9150    -0.0000    -2.0900 hn         1 02C       0.226800
     18 H2           1.7770     1.3840     5.1060 hn         1 02C       0.232800
     19 H83          2.3110     1.8400     3.6300 hn         1 02C       0.232800
     20 H293         3.8400    -0.8100    -0.6660 hn         1 02C       0.226800
@<TRIPOS>BOND
     1     1     2 2   
     2     1     5 1   
     3     1    11 1   
     4     2     3 1   
     5     2     6 1   
     6     3     4 2   
     7     4     5 1   
     8     4     7 1   
     9     6     9 2   
    10     6    10 1   
    11     7     8 1   
    12     7    12 1   
    13     7    13 1   
    14     8    14 1   
    15     8    18 1   
    16     8    19 1   
    17     9    15 1   
    18    10    16 1   
    19    10    17 1   
    20    10    20 1   
@<TRIPOS>SUBSTRUCTURE
     1 02C         1 TEMP              0 ****  ****    0 ROOT
