@<TRIPOS>MOLECULE
02C
   20    20     1     0     0
SMALL
bcc


@<TRIPOS>ATOM
      1 C1           0.0210    -0.8430     0.0280 cc         1 02C      -0.201400
      2 C2           1.2410    -0.1390     0.0880 cd         1 02C       0.229000
      3 N3           1.6290     0.2350     1.3570 nd         1 02C      -0.628000
      4 C4           0.6880    -0.1910     2.2310 cc         1 02C       0.203700
      5 S5          -0.6140    -1.0210     1.5210 ss         1 02C       0.291700
      6 C6           2.0030     0.2320    -1.1300 cf         1 02C       0.530200
      7 C7           0.8170    -0.0140     3.7050 c3         1 02C       0.099500
      8 N8           1.0480     1.4090     4.0990 nz         1 02C      -0.835600
      9 N28          1.4250     0.6190    -2.1880 n2         1 02C      -0.652100
     10 N29          3.5000     0.0700    -0.9260 nz         1 02C      -0.870600
     11 H1          -0.4340    -1.2030    -0.9050 h4         1 02C       0.242000
     12 H71         -0.1270    -0.3680     4.2200 hx         1 02C       0.135200
     13 H72          1.6900    -0.6240     4.0950 hx         1 02C       0.135200
     14 HN8          1.9250     1.7540     3.6920 hn         1 02C       0.473800
     15 HN28         1.8900     0.8520    -3.0400 hn         1 02C       0.488400
     16 H291         3.8270     0.7680    -0.2490 hn         1 02C       0.470467
     17 H292         4.0240     0.1870    -1.8000 hn         1 02C       0.470467
     18 H2           0.2800     2.0050     3.7690 hn         1 02C       0.473800
     19 H83          1.1060     1.4770     5.1240 hn         1 02C       0.473800
     20 H293         3.6890    -0.8660    -0.5510 hn         1 02C       0.470467
@<TRIPOS>BOND
     1     1     2 2   
     2     1     5 1   
     3     1    11 1   
     4     2     3 1   
     5     2     6 1   
     6     3     4 2   
     7     4     5 1   
     8     4     7 1   
     9     6     9 2   
    10     6    10 1   
    11     7     8 1   
    12     7    12 1   
    13     7    13 1   
    14     8    14 1   
    15     8    18 1   
    16     8    19 1   
    17     9    15 1   
    18    10    16 1   
    19    10    17 1   
    20    10    20 1   
@<TRIPOS>SUBSTRUCTURE
     1 02C         1 TEMP              0 ****  ****    0 ROOT
