@<TRIPOS>MOLECULE
molecule
   20    20     1     0     0
SMALL
bcc


@<TRIPOS>ATOM
      1 C1           0.0000     0.0000     0.0000 cc         1 02C      -0.096400
      2 C2           1.3500     0.0000     0.0000 cd         1 02C       0.272000
      3 N3           1.8870     0.0000     1.2140 nd         1 02C      -0.674000
      4 C4           1.0560     0.0000     2.1970 cc         1 02C       0.287700
      5 S5          -0.5510    -0.0010     1.6180 ss         1 02C       0.101700
      6 C6           2.1550     0.0000    -1.2380 cf         1 02C       0.449200
      7 C7           1.4450    -0.0000     3.6530 c3         1 02C       0.100500
      8 N8           1.5710     1.3840     4.1270 nz         1 02C      -0.810600
      9 N28          1.5640    -0.0010    -2.4010 n2         1 02C      -0.645100
     10 N29          3.5320     0.0010    -1.1650 nz         1 02C      -0.793600
     11 H1          -0.6310    -0.0000    -0.8810 h4         1 02C       0.245000
     12 H71          0.6840    -0.5120     4.2300 hx         1 02C       0.138200
     13 H72          2.3930    -0.5110     3.7730 hx         1 02C       0.138200
     14 HN8          0.7110     1.8710     3.9670 hn         1 02C       0.467800
     15 HN28         2.1080    -0.0010    -3.2410 hn         1 02C       0.462400
     16 H291         3.8400     0.8170    -0.6750 hn         1 02C       0.474467
     17 H292         3.8410    -0.8170    -0.6780 hn         1 02C       0.474467
     18 H2           1.7780     1.3840     5.1060 hn         1 02C       0.467800
     19 H83          2.3100     1.8410     3.6300 hn         1 02C       0.467800
     20 H293         3.9150    -0.0090    -2.0900 hn         1 02C       0.474467
@<TRIPOS>BOND
     1     1     2 2
     2     1     5 1
     3     1    11 1
     4     2     3 1
     5     2     6 1
     6     3     4 2
     7     4     5 1
     8     4     7 1
     9     6     9 2
    10     6    10 1
    11     7     8 1
    12     7    12 1
    13     7    13 1
    14     8    14 1
    15     9    15 1
    16    10    16 1
    17    10    17 1
    18     8    18 1
    19    19     8 1
    20    20    10 1
@<TRIPOS>SUBSTRUCTURE
     1 02C         1 TEMP              0 ****  ****    0 ROOT
