@<TRIPOS>MOLECULE
02D
   21    21     1     0     0
SMALL
bcc


@<TRIPOS>ATOM
      1 C1           0.0000     0.0000     0.0000 cc         1 02D      -0.118000
      2 C2           1.3640     0.0000     0.0000 cd         1 02D      -0.033000
      3 C3           1.9090     0.0000     1.2640 cd         1 02D      -0.043000
      4 C4           1.0230     0.0000     2.2640 cc         1 02D      -0.099400
      5 S5          -0.5740     0.0010     1.6620 ss         1 02D      -0.134800
      6 C6          -0.8530     0.0060    -1.1980 ce         1 02D       0.215800
      7 N7          -0.3110     0.0110    -2.3860 n2         1 02D      -0.403100
      8 N8          -2.2270     0.0060    -1.0670 nz         1 02D       0.192400
      9 C9           1.3840    -0.0000     3.7270 c3         1 02D       0.075100
     10 N10          1.5020     1.3850     4.2010 nz         1 02D       0.079400
     11 H2           1.9590    -0.0000    -0.9050 ha         1 02D       0.153000
     12 H3           2.9790    -0.0000     1.4350 ha         1 02D       0.153000
     13 HN7          0.6850     0.0110    -2.4830 hn         1 02D       0.379400
     14 HN81        -2.5150    -0.8120    -0.5670 hn         1 02D       0.229467
     15 HN82        -2.5150     0.8220    -0.5640 hn         1 02D       0.229467
     16 H91          2.3290    -0.5110     3.8650 hx         1 02D       0.098200
     17 H92          0.6110    -0.5100     4.2890 hx         1 02D       0.098200
     18 HN10         0.7150     1.9150     3.8840 hn         1 02D       0.232133
     19 H1           1.5290     1.3940     5.2020 hn         1 02D       0.232133
     20 H83         -2.6490     0.0100    -1.9740 hn         1 02D       0.229467
     21 H103         2.3450     1.7890     3.8450 hn         1 02D       0.232133
@<TRIPOS>BOND
     1     1     2 2   
     2     1     5 1   
     3     1     6 1   
     4     2     3 1   
     5     2    11 1   
     6     3     4 2   
     7     3    12 1   
     8     4     5 1   
     9     4     9 1   
    10     6     7 2   
    11     6     8 1   
    12     7    13 1   
    13     8    14 1   
    14     8    15 1   
    15     8    20 1   
    16     9    10 1   
    17     9    16 1   
    18     9    17 1   
    19    10    18 1   
    20    10    19 1   
    21    10    21 1   
@<TRIPOS>SUBSTRUCTURE
     1 02D         1 TEMP              0 ****  ****    0 ROOT
