@<TRIPOS>MOLECULE
02D
   21    21     1     0     0
SMALL
bcc


@<TRIPOS>ATOM
      1 C1          -0.3620    -0.1840     0.1160 cc         1 02D      -0.275000
      2 C2           0.7370     0.6570     0.3230 cd         1 02D      -0.121000
      3 C3           1.2570     0.5010     1.6270 cd         1 02D      -0.111000
      4 C4           0.5420    -0.4610     2.3510 cc         1 02D      -0.266400
      5 S5          -0.6880    -1.1050     1.4580 ss         1 02D       0.376200
      6 C6          -1.1310    -0.3240    -1.1250 ce         1 02D       0.648800
      7 N7          -1.7130    -1.4080    -1.4410 n2         1 02D      -0.677100
      8 N8          -1.1380     0.9560    -1.9450 nz         1 02D      -0.872600
      9 C9           0.7940    -0.7760     3.7720 c3         1 02D       0.200100
     10 N10          2.1270    -1.4220     3.9950 nz         1 02D      -0.840600
     11 H2           1.1760     1.3450    -0.4060 ha         1 02D       0.176000
     12 H3           2.1020     1.0860     2.0080 ha         1 02D       0.185000
     13 HN7         -2.2570    -1.5420    -2.2670 hn         1 02D       0.488400
     14 HN81        -0.2230     1.0710    -2.3980 hn         1 02D       0.472800
     15 HN82        -1.3000     1.7560    -1.3210 hn         1 02D       0.472800
     16 H91          0.0050    -1.4760     4.1830 hx         1 02D       0.130700
     17 H92          0.7770     0.1770     4.3850 hx         1 02D       0.130700
     18 HN10         2.2820    -1.5560     5.0030 hn         1 02D       0.470133
     19 H1           2.8750    -0.8290     3.6180 hn         1 02D       0.470133
     20 H83         -1.8660     0.9470    -2.6680 hn         1 02D       0.472800
     21 H103         2.1710    -2.3350     3.5290 hn         1 02D       0.470133
@<TRIPOS>BOND
     1     1     2 2   
     2     1     5 1   
     3     1     6 1   
     4     2     3 1   
     5     2    11 1   
     6     3     4 2   
     7     3    12 1   
     8     4     5 1   
     9     4     9 1   
    10     6     7 2   
    11     6     8 1   
    12     7    13 1   
    13     8    14 1   
    14     8    15 1   
    15     8    20 1   
    16     9    10 1   
    17     9    16 1   
    18     9    17 1   
    19    10    18 1   
    20    10    19 1   
    21    10    21 1   
@<TRIPOS>SUBSTRUCTURE
     1 02D         1 TEMP              0 ****  ****    0 ROOT
