@<TRIPOS>MOLECULE
molecule
   47    48     1     0     0
SMALL
bcc


@<TRIPOS>ATOM
      1 OP1          0.0000     0.0000     0.0000 oh         1 02E      -0.691100
      2 OP4          2.5060    -1.4020    -0.2490 oh         1 02E      -0.691100
      3 OP3          1.2030    -0.1060    -1.5360 os         1 02E      -0.564200
      4 C1           6.5230     3.3030    -3.0220 c3         1 02E       0.213700
      5 C2           4.9360     2.5620    -1.4560 c2         1 02E       0.117100
      6 C4           2.5830     2.1820    -1.5700 c3         1 02E      -0.132200
      7 C5           2.6610     1.5240    -0.3640 c3         1 02E      -0.237600
      8 O2           6.0830     3.2080    -1.9130 os         1 02E      -0.363900
      9 P            1.7760     0.0000     0.0000 p5         1 02E       1.501500
     10 C61          0.8590     1.0260    -2.6450 ca         1 02E       0.124100
     11 OP2          2.2040     0.0000     1.5900 os         1 02E      -0.564200
     12 C51          3.2060    -0.8570     2.0580 ca         1 02E       0.124100
     13 C52          2.8830    -2.1130     2.5750 ca         1 02E      -0.153750
     14 C53          3.8210    -2.8400     3.3060 ca         1 02E      -0.099750
     15 C54          5.1010    -2.3250     3.5350 ca         1 02E      -0.116000
     16 C55          5.4230    -1.0690     3.0210 ca         1 02E      -0.099750
     17 C56          4.4850    -0.3420     2.2920 ca         1 02E      -0.153750
     18 N6           2.1780     2.4770     0.6220 nz         1 02E      -0.796600
     19 C411        -0.0700     0.1770    -3.5320 ca         1 02E      -0.153750
     20 C421         1.0860     2.5140    -2.9700 ca         1 02E      -0.153750
     21 C431         0.3830     3.1530    -4.1820 ca         1 02E      -0.099750
     22 C441        -0.5460     2.3040    -5.0700 ca         1 02E      -0.116000
     23 C451        -0.7720     0.8160    -4.7450 ca         1 02E      -0.099750
     24 HOP1        -0.2850     0.3590     0.8240 ho         1 02E       0.426000
     25 H50          1.8570    -2.0850    -0.2130 ho         1 02E       0.426000
     26 HC11         7.5450     2.9460    -3.0360 h1         1 02E       0.011033
     27 HC12         6.5160     4.3380    -3.3440 h1         1 02E       0.011033
     28 HC13         5.9660     2.6740    -3.7050 h1         1 02E       0.011033
     29 H2           5.0890     1.5570    -1.0810 h4         1 02E       0.114000
     30 H3           3.7430     3.7750    -2.3070 ha         1 02E       0.146000
     31 HC41         1.8010     2.9270    -1.4830 hc         1 02E       0.158700
     32 HC42         2.3540     1.5360    -2.4090 hc         1 02E       0.158700
     33 HC5          3.7100     1.3410    -0.1620 hx         1 02E       0.140700
     34 H52          1.8960    -2.5260     2.4060 ha         1 02E       0.153500
     35 H53          3.5630    -3.8120     3.7090 ha         1 02E       0.156750
     36 H54          5.8310    -2.8890     4.1030 ha         1 02E       0.159000
     37 H55          6.4140    -0.6710     3.2030 ha         1 02E       0.156750
     38 H56          4.7480     0.6320     1.8990 ha         1 02E       0.153500
     39 HN6          2.0850     3.3800     0.1980 hn         1 02E       0.450133
     40 H441        -0.2390    -0.8710    -3.3160 ha         1 02E       0.153500
     41 H451         1.7450     3.0890    -2.3290 ha         1 02E       0.153500
     42 H461         0.5450     4.1960    -4.4240 ha         1 02E       0.156750
     43 H47         -1.0360     2.7500    -5.9270 ha         1 02E       0.159000
     44 H48         -1.4270     0.2230    -5.3710 ha         1 02E       0.156750
     45 H1           1.2740     2.1960     0.9480 hn         1 02E       0.450133
     46 H63          2.8270     2.5230     1.3820 hn         1 02E       0.450133
     47 C3           3.8370     2.8850    -1.6970 c2         1 02E      -0.302200
@<TRIPOS>BOND
     1     1     9 1
     2     2     9 1
     3     3     9 1
     4     3    10 1
     5     4     8 1
     6     5    47 2
     7     5     8 1
     8    47     6 1
     9     6     7 1
    10     7     9 1
    11     7    18 1
    12     9    11 1
    13    10    20 ar
    14    11    12 1
    15    12    13 ar
    16    12    17 ar
    17    13    14 ar
    18    14    15 ar
    19    15    16 ar
    20    16    17 ar
    21    19    10 ar
    22    19    23 ar
    23    20    21 ar
    24    21    22 ar
    25    22    23 ar
    26     1    24 1
    27     2    25 1
    28     4    26 1
    29     4    27 1
    30     4    28 1
    31     5    29 1
    32    47    30 1
    33     6    31 1
    34     6    32 1
    35     7    33 1
    36    13    34 1
    37    14    35 1
    38    15    36 1
    39    16    37 1
    40    17    38 1
    41    18    39 1
    42    19    40 1
    43    20    41 1
    44    21    42 1
    45    22    43 1
    46    23    44 1
    47    18    45 1
    48    46    18 1
@<TRIPOS>SUBSTRUCTURE
     1 02E         1 TEMP              0 ****  ****    0 ROOT
