@<TRIPOS>MOLECULE
molecule
   47    48     1     0     0
SMALL
bcc


@<TRIPOS>ATOM
      1 OP1          0.0000     0.0000     0.0000 oh         1 02E      -0.846600
      2 OP4          2.5060    -1.4020    -0.2490 oh         1 02E      -0.846600
      3 OP3          1.2030    -0.1060    -1.5360 os         1 02E      -0.583200
      4 C1           6.5300     3.2920    -3.0200 c3         1 02E       0.101700
      5 C2           4.9360     2.5620    -1.4560 c2         1 02E       0.119100
      6 C4           2.5830     2.1820    -1.5700 c3         1 02E      -0.032200
      7 C5           2.6610     1.5240    -0.3640 c3         1 02E      -0.293600
      8 O2           6.0830     3.2080    -1.9130 os         1 02E      -0.305900
      9 P            1.7760     0.0000     0.0000 p5         1 02E       1.762500
     10 C61          0.8590     1.0260    -2.6450 ca         1 02E       0.115100
     11 OP2          2.2040     0.0000     1.5900 os         1 02E      -0.583200
     12 C51          3.2060    -0.8570     2.0580 ca         1 02E       0.115100
     13 C52          2.8830    -2.1130     2.5750 ca         1 02E      -0.154250
     14 C53          3.8210    -2.8400     3.3060 ca         1 02E      -0.103000
     15 C54          5.1010    -2.3250     3.5350 ca         1 02E      -0.121500
     16 C55          5.4230    -1.0690     3.0210 ca         1 02E      -0.103000
     17 C56          4.4850    -0.3420     2.2920 ca         1 02E      -0.154250
     18 N6           2.1780     2.4770     0.6220 nz         1 02E      -0.791600
     19 C411        -0.0700     0.1770    -3.5320 ca         1 02E      -0.154250
     20 C421         1.0860     2.5140    -2.9700 ca         1 02E      -0.154250
     21 C431         0.3830     3.1530    -4.1820 ca         1 02E      -0.103000
     22 C441        -0.5460     2.3040    -5.0700 ca         1 02E      -0.121500
     23 C451        -0.7720     0.8160    -4.7450 ca         1 02E      -0.103000
     24 C3           3.8370     2.8850    -1.6970 c2         1 02E      -0.391200
     25 HOP1        -0.3140    -0.5230     0.7180 ho         1 02E       0.497000
     26 H50          1.8860    -2.0220    -0.5960 ho         1 02E       0.497000
     27 HC11         6.3200     4.2770    -3.4200 h1         1 02E       0.057033
     28 HC12         6.0720     2.5410    -3.6520 h1         1 02E       0.057033
     29 HC13         7.6010     3.1350    -2.9900 h1         1 02E       0.057033
     30 H2           5.0820     1.6620    -0.8700 h4         1 02E       0.175000
     31 H3           3.7480     3.7710    -2.3130 ha         1 02E       0.135000
     32 HC41         2.4670     1.4710    -2.3800 hc         1 02E       0.094200
     33 HC42         1.7580     2.8830    -1.5630 hc         1 02E       0.094200
     34 HC5          3.7100     1.3430    -0.1640 hx         1 02E       0.161700
     35 H52          3.4060    -2.2780     1.6400 ha         1 02E       0.146000
     36 H53          3.5570    -3.8140     3.7000 ha         1 02E       0.151000
     37 H54          5.7540    -2.7990     4.2570 ha         1 02E       0.152500
     38 H55          6.4100    -0.6560     3.1910 ha         1 02E       0.151000
     39 H56          4.7500     0.6320     1.8990 ha         1 02E       0.146000
     40 HN6          2.4340     3.4040     0.3430 hn         1 02E       0.471133
     41 H441        -0.2290    -0.8700    -3.3040 ha         1 02E       0.146000
     42 H451         1.7400     3.1120    -2.3460 ha         1 02E       0.146000
     43 H461         0.5420     4.2000    -4.4100 ha         1 02E       0.151000
     44 H47         -1.0410     2.7540    -5.9220 ha         1 02E       0.152500
     45 H48         -1.4260     0.2190    -5.3690 ha         1 02E       0.151000
     46 H1           2.5860     2.2720     1.5120 hn         1 02E       0.471133
     47 H63          1.1810     2.4120     0.6880 hn         1 02E       0.471133
@<TRIPOS>BOND
     1     1     9 1   
     2     2     9 1   
     3     3     9 1   
     4     3    10 1   
     5     4     8 1   
     6     5    24 2   
     7     5     8 1   
     8    24     6 1   
     9     6     7 1   
    10     7     9 1   
    11     7    18 1   
    12     9    11 1   
    13    10    20 ar  
    14    11    12 1   
    15    12    13 ar  
    16    12    17 ar  
    17    13    14 ar  
    18    14    15 ar  
    19    15    16 ar  
    20    16    17 ar  
    21    19    10 ar  
    22    19    23 ar  
    23    20    21 ar  
    24    21    22 ar  
    25    22    23 ar  
    26     1    25 1   
    27     2    26 1   
    28     4    27 1   
    29     4    28 1   
    30     4    29 1   
    31     5    30 1   
    32    24    31 1   
    33     6    32 1   
    34     6    33 1   
    35     7    34 1   
    36    13    35 1   
    37    14    36 1   
    38    15    37 1   
    39    16    38 1   
    40    17    39 1   
    41    18    40 1   
    42    19    41 1   
    43    20    42 1   
    44    21    43 1   
    45    22    44 1   
    46    23    45 1   
    47    18    46 1   
    48    47    18 1   
@<TRIPOS>SUBSTRUCTURE
     1 02E         1 TEMP              0 ****  ****    0 ROOT
