@<TRIPOS>MOLECULE
molecule
   24    23     1     0     0
SMALL
bcc


@<TRIPOS>ATOM
      1 P            0.0000     0.0000     0.0000 p5         1 02F       1.152700
      2 C1           5.1710    -0.5900     2.9370 c3         1 02F       0.117700
      3 C2           4.3340     1.5350     2.1920 c3         1 02F       0.129400
      4 O2           5.4520     0.7650     2.5870 os         1 02F      -0.440600
      5 C4           2.6340     0.0000     1.2810 c3         1 02F      -0.010400
      6 C5           1.7850     0.0000     0.0000 c3         1 02F      -0.090700
      7 N6           2.2120    -1.1260    -0.8640 nz         1 02F      -0.796600
      8 OP1         -0.4230     0.9380     1.2240 o          1 02F      -0.861500
      9 OP2         -0.7260     0.8890    -1.2810 o          1 02F      -0.861500
     10 OP3         -0.8540    -1.4910    -0.0940 o          1 02F      -0.861500
     11 C3           3.7910     1.0020     0.8780 c3         1 02F      -0.131400
     12 H1           4.2070    -0.6430     3.4300 h1         1 02F       0.030033
     13 H1A          5.9390    -0.9570     3.6060 h1         1 02F       0.030033
     14 H1B          5.1510    -1.1980     2.0410 h1         1 02F       0.030033
     15 H2           4.6340     2.5680     2.0660 h1         1 02F       0.038700
     16 H2A          3.5660     1.4720     2.9520 h1         1 02F       0.038700
     17 H3           3.3940     1.8130     0.2800 hc         1 02F       0.032700
     18 H3A          4.5690     0.4790     0.3350 hc         1 02F       0.032700
     19 H4           3.0290    -0.9880     1.4860 hc         1 02F       0.041700
     20 H4A          2.0680     0.3780     2.1230 hc         1 02F       0.041700
     21 H5           2.0680     0.9030    -0.5270 hx         1 02F       0.070700
     22 HN6          2.4960    -0.3110    -1.3700 hn         1 02F       0.422800
     23 H6           1.4590    -1.6340    -1.2850 hn         1 02F       0.422800
     24 H63          2.9680    -1.6680    -0.4940 hn         1 02F       0.422800
@<TRIPOS>BOND
     1     1     9 1   
     2     1     8 1   
     3     3    11 1   
     4     4     2 1   
     5     4     3 1   
     6    11     5 1   
     7     5     6 1   
     8     6     1 1   
     9     7     6 1   
    10     1    10 1   
    11     2    12 1   
    12     2    13 1   
    13     2    14 1   
    14     3    15 1   
    15     3    16 1   
    16    11    17 1   
    17    11    18 1   
    18     5    19 1   
    19     5    20 1   
    20     6    21 1   
    21     7    22 1   
    22     7    23 1   
    23    24     7 1   
@<TRIPOS>SUBSTRUCTURE
     1 02F         1 TEMP              0 ****  ****    0 ROOT
