@<TRIPOS>MOLECULE
02F
   24    23     1     0     0
SMALL
bcc


@<TRIPOS>ATOM
      1 P            0.0000     0.0000     0.0000 p5         1 02F       0.393700
      2 C1           2.2790     2.5120     5.6430 c3         1 02F       0.251700
      3 C2           2.3330     1.2480     3.6070 c3         1 02F       0.216400
      4 O2           1.8570     2.4140     4.2810 os         1 02F      -0.397600
      5 C4           2.3340     0.0000     1.4430 c3         1 02F       0.036600
      6 C5           1.8230     0.0000     0.0000 c3         1 02F      -0.109700
      7 N6           2.3130    -1.1990    -0.6930 nz         1 02F      -0.010600
      8 OP1         -0.5360     1.3760     0.6430 o          1 02F      -0.676833
      9 OP2         -0.5370    -0.1320    -1.5120 o          1 02F      -0.676833
     10 OP3         -0.4930    -1.1440     0.8000 o          1 02F      -0.676833
     11 H1           1.8780     3.4190     6.0810 h1         1 02F      -0.025967
     12 H1A          3.3610     2.5390     5.6850 h1         1 02F      -0.025967
     13 H1B          1.9170     1.6540     6.1960 h1         1 02F      -0.025967
     14 H2           1.9730     0.3630     4.1180 h1         1 02F      -0.030800
     15 H2A          3.4170     1.2490     3.6070 h1         1 02F      -0.030800
     16 H3           2.1830     2.1330     1.6540 hc         1 02F       0.085700
     17 H3A          0.7390     1.2470     2.1650 hc         1 02F       0.085700
     18 H4           3.4170     0.0010     1.4420 hc         1 02F      -0.016300
     19 H4A          1.9740    -0.8850     1.9530 hc         1 02F      -0.016300
     20 H5           2.1840     0.8850    -0.5110 hx         1 02F       0.069700
     21 HN6          2.6730    -0.4160    -1.2020 hn         1 02F       0.225467
     22 H6           3.0020    -1.7200    -0.1880 hn         1 02F       0.225467
     23 H63          1.6070    -1.7200    -1.1740 hn         1 02F       0.225467
     24 C3           1.8230     1.2480     2.1640 c3         1 02F      -0.094400
@<TRIPOS>BOND
     1     1     6 1   
     2     1     8 1   
     3     1     9 1   
     4     1    10 1   
     5     2     4 1   
     6     2    11 1   
     7     2    12 1   
     8     2    13 1   
     9     3     4 1   
    10     3    14 1   
    11     3    15 1   
    12     3    24 1   
    13     5     6 1   
    14     5    18 1   
    15     5    19 1   
    16     5    24 1   
    17     6     7 1   
    18     6    20 1   
    19     7    21 1   
    20     7    22 1   
    21     7    23 1   
    22    16    24 1   
    23    17    24 1   
@<TRIPOS>SUBSTRUCTURE
     1 02F         1 TEMP              0 ****  ****    0 ROOT
