@<TRIPOS>MOLECULE
molecule
   24    23     1     0     0
SMALL
bcc


@<TRIPOS>ATOM
      1 P            0.0000     0.0000     0.0000 p5         1 02F       0.894700
      2 C1           2.2790     2.5120     5.6430 c3         1 02F       0.131700
      3 C2           2.3330     1.2480     3.6070 c3         1 02F       0.140400
      4 O2           1.8570     2.4140     4.2810 os         1 02F      -0.408600
      5 C4           2.3340     0.0000     1.4430 c3         1 02F      -0.061400
      6 C5           1.8230     0.0000     0.0000 c3         1 02F      -0.039700
      7 N6           2.3130    -1.1990    -0.6930 nz         1 02F      -0.843600
      8 OP1         -0.5360     1.3760     0.6430 o          1 02F      -0.830500
      9 OP2         -0.5370    -0.1320    -1.5120 o          1 02F      -0.830500
     10 OP3         -0.4930    -1.1440     0.8000 o          1 02F      -0.830500
     11 H1           1.8780     3.4190     6.0810 h1         1 02F       0.017367
     12 H1A          3.3610     2.5390     5.6850 h1         1 02F       0.017367
     13 H1B          1.9170     1.6540     6.1960 h1         1 02F       0.017367
     14 H2           1.9730     0.3630     4.1180 h1         1 02F       0.003700
     15 H2A          3.4170     1.2490     3.6070 h1         1 02F       0.003700
     16 H3           2.1830     2.1330     1.6540 hc         1 02F       0.110700
     17 H3A          0.7390     1.2470     2.1650 hc         1 02F       0.110700
     18 H4           3.4170     0.0010     1.4420 hc         1 02F       0.023700
     19 H4A          1.9740    -0.8850     1.9530 hc         1 02F       0.023700
     20 H5           2.1840     0.8850    -0.5110 hx         1 02F       0.084700
     21 HN6          2.6730    -0.4160    -1.2020 hn         1 02F       0.455800
     22 H6           3.0020    -1.7200    -0.1880 hn         1 02F       0.455800
     23 H63          1.6070    -1.7200    -1.1740 hn         1 02F       0.455800
     24 C3           1.8230     1.2480     2.1640 c3         1 02F      -0.100400
@<TRIPOS>BOND
     1     1     9 1
     2     1     8 1
     3     3    24 1
     4     4     2 1
     5     4     3 1
     6    24     5 1
     7     5     6 1
     8     6     1 1
     9     7     6 1
    10     1    10 1
    11     2    11 1
    12     2    12 1
    13     2    13 1
    14     3    14 1
    15     3    15 1
    16    24    16 1
    17    24    17 1
    18     5    18 1
    19     5    19 1
    20     6    20 1
    21     7    21 1
    22     7    22 1
    23    23     7 1
@<TRIPOS>SUBSTRUCTURE
     1 02F         1 TEMP              0 ****  ****    0 ROOT
