@<TRIPOS>MOLECULE
molecule
   22    21     1     0     0
SMALL
bcc


@<TRIPOS>ATOM
      1 C2           0.0000     0.0000     0.0000 c3         1 02G      -0.213400
      2 C7           3.0690     4.5100     0.0350 c3         1 02G       0.052700
      3 C6           3.3650     3.2730    -0.8160 c3         1 02G      -0.032200
      4 C5           2.8630     2.0430    -0.1050 c2         1 02G      -0.067200
      5 C4           2.0320     1.2310    -0.7090 c2         1 02G      -0.568200
      6 C3           1.5300     0.0000     0.0000 c3         1 02G       0.140300
      7 C1          -0.5030    -1.2880     0.6010 c          1 02G       0.898600
      8 O2           2.0060     0.0000     1.3480 oh         1 02G      -0.638800
      9 O1           0.2830    -2.1200     0.9890 o          1 02G      -0.844300
     10 S            3.6750     5.9910    -0.8190 sh         1 02G      -0.453900
     11 H01         -0.3610     0.8370     0.5860 hc         1 02G       0.054200
     12 H01A        -0.3610     0.0890    -1.0170 hc         1 02G       0.054200
     13 H02          3.5670     4.4160     0.9930 h1         1 02G       0.055200
     14 H02A         2.0010     4.5940     0.1910 h1         1 02G       0.055200
     15 H03          4.4340     3.1890    -0.9720 hc         1 02G       0.068700
     16 H03A         2.8670     3.3660    -1.7730 hc         1 02G       0.068700
     17 H04          3.1910     1.8300     0.9050 ha         1 02G       0.082000
     18 H05          1.2540     1.2340     0.0440 ha         1 02G       0.411000
     19 H06          1.8910    -0.8840    -0.5110 h1         1 02G       0.103700
     20 HS30         3.4200     7.0640    -0.0800 hs         1 02G       0.206800
     21 H2           2.6560    -0.6750     1.4510 ho         1 02G       0.411000
     22 OXT         -1.8220    -1.5110     0.7040 o          1 02G      -0.844300
@<TRIPOS>BOND
     1     1     6 1
     2     1    11 1
     3     1    12 1
     4     2    10 1
     5     2     3 1
     6     2    13 1
     7     2    14 1
     8     3    15 1
     9     3    16 1
    10     4     3 1
    11     4    17 1
    12     5     4 2
    13     5    18 1
    14     6     5 1
    15     6     8 1
    16     6    19 1
    17     7     1 1
    18     7     9 1
    19     8    21 1
    20    10    20 1
    21     7    22 1
@<TRIPOS>SUBSTRUCTURE
     1 02G         1 TEMP              0 ****  ****    0 ROOT
