@<TRIPOS>MOLECULE
02G
   22    21     1     0     0
SMALL
bcc


@<TRIPOS>ATOM
      1 C2           0.0000     0.0000     0.0000 c3         1 02G      -0.143400
      2 C7           3.0690     4.5100     0.0350 c3         1 02G       0.119700
      3 C6           3.3650     3.2730    -0.8160 c3         1 02G       0.044800
      4 C5           2.8630     2.0430    -0.1050 c2         1 02G      -0.214200
      5 C4           2.0320     1.2310    -0.7090 c2         1 02G      -0.148200
      6 C3           1.5300     0.0000     0.0000 c3         1 02G       0.242300
      7 C1          -0.5030    -1.2880     0.6010 c          1 02G       0.988600
      8 O2           2.0060     0.0000     1.3480 oh         1 02G      -0.579800
      9 O1           0.2830    -2.1200     0.9890 o          1 02G      -0.904800
     10 S            3.6750     5.9910    -0.8190 sh         1 02G      -0.439900
     11 H01         -0.3610     0.8370     0.5860 hc         1 02G       0.014200
     12 H01A        -0.3610     0.0890    -1.0170 hc         1 02G       0.014200
     13 H02          2.0010     4.5940     0.1910 h1         1 02G       0.034200
     14 H02A         3.5670     4.4160     0.9930 h1         1 02G       0.034200
     15 H03          4.4340     3.1890    -0.9720 hc         1 02G       0.020200
     16 H03A         2.8670     3.3660    -1.7730 hc         1 02G       0.020200
     17 H04          3.2190     1.8110     0.8910 ha         1 02G       0.127000
     18 H05          1.7050     1.4440    -1.7200 ha         1 02G       0.096000
     19 H06          1.8910    -0.8840    -0.5110 h1         1 02G       0.017700
     20 HS30         3.4180     7.0640    -0.0810 hs         1 02G       0.175800
     21 H2           2.6700    -0.6620     1.4460 ho         1 02G       0.383000
     22 OXT         -1.8220    -1.5110     0.7040 o          1 02G      -0.904800
@<TRIPOS>BOND
     1     1     6 1   
     2     1     7 1   
     3     1    11 1   
     4     1    12 1   
     5     2     3 1   
     6     2    10 1   
     7     2    13 1   
     8     2    14 1   
     9     3     4 1   
    10     3    15 1   
    11     3    16 1   
    12     4     5 2   
    13     4    17 1   
    14     5     6 1   
    15     5    18 1   
    16     6     8 1   
    17     6    19 1   
    18     7     9 1   
    19     7    22 1   
    20     8    21 1   
    21    10    20 1   
@<TRIPOS>SUBSTRUCTURE
     1 02G         1 TEMP              0 ****  ****    0 ROOT
