@<TRIPOS>MOLECULE
02G
   22    21     1     0     0
SMALL
bcc


@<TRIPOS>ATOM
      1 C2           0.6300     0.7500    -0.2330 c3         1 02G      -0.238400
      2 C7           1.8970     1.3890    -3.2790 c3         1 02G       0.014700
      3 C6           2.5160     2.4760    -2.4380 c3         1 02G      -0.028200
      4 C5           3.3560     2.0080    -1.3080 c2         1 02G      -0.200200
      5 C4           3.1290     1.0200    -0.4370 c2         1 02G      -0.141200
      6 C3           1.9800     0.0710    -0.4460 c3         1 02G       0.185300
      7 C1          -0.4530    -0.1590    -0.8390 c          1 02G       0.905600
      8 O2           2.2060    -0.9040     0.5740 oh         1 02G      -0.645800
      9 O1          -0.7140    -1.2350    -0.2280 o          1 02G      -0.847300
     10 S            1.2910     2.0720    -4.8090 sh         1 02G      -0.475900
     11 H01          0.6110     1.7520    -0.7240 hc         1 02G       0.041200
     12 H01A         0.4410     0.8820     0.8600 hc         1 02G       0.041200
     13 H02          2.6560     0.6150    -3.5450 h1         1 02G       0.100700
     14 H02A         1.0450     0.8890    -2.7410 h1         1 02G       0.100700
     15 H03          1.6990     3.1320    -2.0260 hc         1 02G       0.044700
     16 H03A         3.1480     3.1280    -3.1040 hc         1 02G       0.044700
     17 H04          4.2710     2.6130    -1.1750 ha         1 02G       0.095000
     18 H05          3.8530     0.8340     0.3770 ha         1 02G       0.120000
     19 H06          1.9750    -0.4760    -1.4380 h1         1 02G       0.044700
     20 HS30        -0.0080     1.8480    -4.6440 hs         1 02G       0.243800
     21 H2           1.3630    -1.3820     0.6600 ho         1 02G       0.444000
     22 OXT         -0.9810     0.1970    -1.9320 o          1 02G      -0.847300
@<TRIPOS>BOND
     1     1     6 1   
     2     1     7 1   
     3     1    11 1   
     4     1    12 1   
     5     2     3 1   
     6     2    10 1   
     7     2    13 1   
     8     2    14 1   
     9     3     4 1   
    10     3    15 1   
    11     3    16 1   
    12     4     5 2   
    13     4    17 1   
    14     5     6 1   
    15     5    18 1   
    16     6     8 1   
    17     6    19 1   
    18     7     9 1   
    19     7    22 1   
    20     8    21 1   
    21    10    20 1   
@<TRIPOS>SUBSTRUCTURE
     1 02G         1 TEMP              0 ****  ****    0 ROOT
