@<TRIPOS>MOLECULE
02H
   56    58     1     0     0
SMALL
bcc


@<TRIPOS>ATOM
      1 N1           0.3720    -0.1010    -0.3260 nz         1 02H      -0.838600
      2 C4           2.0080    -2.2630     1.3430 c3         1 02H      -0.120400
      3 C5           2.3830    -0.0450    -1.8130 c3         1 02H      -0.041100
      4 C7           3.0390    -2.7650     2.3560 c3         1 02H       0.128500
      5 C8           2.5970    -4.1230     2.9340 c3         1 02H      -0.048100
      6 C10          3.1990    -4.2360     5.3600 ca         1 02H      -0.135500
      7 C13          5.4340    -5.8070     4.7870 ca         1 02H      -0.106000
      8 C15          1.4940     0.3790    -2.9240 ca         1 02H      -0.201300
      9 C17          0.1320     2.0810    -3.9830 ca         1 02H      -0.114500
     10 C20          1.2700    -0.4660    -4.0170 ca         1 02H      -0.124500
     11 C2           1.6130    -0.8360    -0.7370 c3         1 02H       0.082500
     12 C3           2.5460    -1.1370     0.4630 c3         1 02H       0.109100
     13 N6           3.2750    -1.7780     3.4650 nz         1 02H      -0.840600
     14 C9           3.4980    -4.5650     4.0300 ca         1 02H      -0.180300
     15 C11          4.0150    -4.6880     6.3940 ca         1 02H      -0.106000
     16 C12          5.1350    -5.4730     6.1090 ca         1 02H      -0.085000
     17 C14          4.6170    -5.3570     3.7490 ca         1 02H      -0.135500
     18 C16          0.9220     1.6600    -2.9200 ca         1 02H      -0.124500
     19 C18         -0.0990     1.2340    -5.0830 cp         1 02H       0.047000
     20 C19          0.4810    -0.0450    -5.0830 ca         1 02H      -0.114500
     21 C44         -0.9080     1.6860    -6.2040 cp         1 02H      -0.217300
     22 C45         -0.8750     3.0390    -6.6190 ca         1 02H       0.428200
     23 N46         -1.5960     3.5200    -7.6460 nb         1 02H      -0.647000
     24 C47         -2.3880     2.6580    -8.3130 ca         1 02H       0.434200
     25 C48         -2.4890     1.2910    -7.9850 ca         1 02H      -0.239300
     26 C49         -1.7370     0.8040    -6.9190 ca         1 02H      -0.068000
     27 O51          2.6820     0.0070     1.2940 oh         1 02H      -0.642800
     28 HN1         -0.0710     0.3050    -1.1710 hn         1 02H       0.470467
     29 H4           1.0730    -1.9340     1.8680 hc         1 02H       0.093200
     30 H4A          1.7440    -3.1370     0.6840 hc         1 02H       0.093200
     31 H5           3.1940    -0.7190    -2.2050 hc         1 02H       0.086700
     32 H5A          2.8770     0.8480    -1.3440 hc         1 02H       0.086700
     33 H7           4.0410    -2.9010     1.8430 hx         1 02H       0.116700
     34 H8           2.6170    -4.8670     2.0910 hc         1 02H       0.091700
     35 H8A          1.5370    -4.0540     3.2990 hc         1 02H       0.091700
     36 H17         -0.3090     3.0920    -3.9710 ha         1 02H       0.166000
     37 H20          1.7400    -1.4620    -4.0510 ha         1 02H       0.132500
     38 H2           1.2750    -1.8170    -1.1930 hx         1 02H       0.125700
     39 H3           3.5460    -1.4330     0.0300 h1         1 02H       0.101700
     40 HN6          3.5790    -0.8760     3.0820 hn         1 02H       0.468800
     41 H11          3.7670    -4.4440     7.4400 ha         1 02H       0.166000
     42 H12          5.7740    -5.8410     6.9300 ha         1 02H       0.171000
     43 H14          4.8450    -5.6470     2.7120 ha         1 02H       0.132500
     44 H16          1.1370     2.3600    -2.0980 ha         1 02H       0.132500
     45 H19          0.3310    -0.7120    -5.9490 ha         1 02H       0.166000
     46 H45         -0.2230     3.7730    -6.1110 h4         1 02H       0.027100
     47 H47         -2.9680     3.0880    -9.1520 h4         1 02H       0.048100
     48 H48         -3.1480     0.6290    -8.5640 ha         1 02H       0.164000
     49 H49         -1.7990    -0.2580    -6.6360 ha         1 02H       0.137000
     50 HO51         3.2770     0.6340     0.8540 ho         1 02H       0.455000
     51 H1           0.6200     0.6590     0.3180 hn         1 02H       0.470467
     52 H6           3.9900    -2.1630     4.1020 hn         1 02H       0.468800
     53 H10          2.2870    -3.6680     5.5990 ha         1 02H       0.132500
     54 H13         -0.2850    -0.7320     0.1360 hn         1 02H       0.470467
     55 H63          2.4120    -1.6410     4.0010 hn         1 02H       0.468800
     56 H15          6.3070    -6.4410     4.5620 ha         1 02H       0.166000
@<TRIPOS>BOND
     1     1    11 1   
     2     1    28 1   
     3     1    51 1   
     4     1    54 1   
     5     2     4 1   
     6     2    12 1   
     7     2    29 1   
     8     2    30 1   
     9     3     8 1   
    10     3    11 1   
    11     3    31 1   
    12     3    32 1   
    13     4     5 1   
    14     4    13 1   
    15     4    33 1   
    16     5    14 1   
    17     5    34 1   
    18     5    35 1   
    19     6    14 ar  
    20     6    15 ar  
    21     6    53 1   
    22     7    16 ar  
    23     7    17 ar  
    24     7    56 1   
    25     8    10 ar  
    26     8    18 ar  
    27     9    18 ar  
    28     9    19 ar  
    29     9    36 1   
    30    10    20 ar  
    31    10    37 1   
    32    11    12 1   
    33    11    38 1   
    34    12    27 1   
    35    12    39 1   
    36    13    40 1   
    37    13    52 1   
    38    13    55 1   
    39    14    17 ar  
    40    15    16 ar  
    41    15    41 1   
    42    16    42 1   
    43    17    43 1   
    44    18    44 1   
    45    19    20 ar  
    46    19    21 1   
    47    20    45 1   
    48    21    22 ar  
    49    21    26 ar  
    50    22    23 ar  
    51    22    46 1   
    52    23    24 ar  
    53    24    25 ar  
    54    24    47 1   
    55    25    26 ar  
    56    25    48 1   
    57    26    49 1   
    58    27    50 1   
@<TRIPOS>SUBSTRUCTURE
     1 02H         1 TEMP              0 ****  ****    0 ROOT
