@<TRIPOS>MOLECULE
molecule
   56    58     1     0     0
SMALL
bcc


@<TRIPOS>ATOM
      1 N1           0.0000     0.0000     0.0000 nz         1 02H      -0.806600
      2 C4           1.4690    -1.2490     2.1630 c3         1 02H      -0.128400
      3 C5           1.9780     1.2490    -0.7220 c3         1 02H      -0.046100
      4 C7           2.0800    -1.3140     3.5640 c3         1 02H       0.117500
      5 C8           1.6700    -2.6240     4.2390 c3         1 02H      -0.049100
      6 C10          1.7750    -2.2400     6.7100 ca         1 02H      -0.136000
      7 C13          4.2410    -3.4810     6.8690 ca         1 02H      -0.096000
      8 C15          1.5790     1.1890    -2.1730 ca         1 02H      -0.188300
      9 C17          2.0630     0.5410    -4.4280 ca         1 02H      -0.109000
     10 C20          0.3710     1.7280    -2.5790 ca         1 02H      -0.122500
     11 C2           1.4690     0.0000     0.0000 c3         1 02H       0.095500
     12 C3           1.9790     0.0000     1.4410 c3         1 02H       0.099100
     13 N6           1.5960    -0.1800     4.3620 nz         1 02H      -0.809600
     14 C9           2.3690    -2.7440     5.5690 ca         1 02H      -0.167300
     15 C11          2.4170    -2.3500     7.9310 ca         1 02H      -0.096000
     16 C12          3.6490    -2.9700     8.0090 ca         1 02H      -0.085000
     17 C14          3.6050    -3.3600     5.6470 ca         1 02H      -0.136000
     18 C16          2.4240     0.5990    -3.0970 ca         1 02H      -0.122500
     19 C18          0.8450     1.0780    -4.8400 cp         1 02H       0.038000
     20 C19          0.0010     1.6760    -3.9070 ca         1 02H      -0.109000
     21 C44          0.4530     1.0200    -6.2700 cp         1 02H      -0.217300
     22 C45          1.2910     0.4250    -7.2120 ca         1 02H       0.452200
     23 N46          0.9430     0.3720    -8.4810 nb         1 02H      -0.671000
     24 C47         -0.1990     0.8730    -8.9110 ca         1 02H       0.459200
     25 C48         -1.0840     1.4800    -8.0400 ca         1 02H      -0.245300
     26 C49         -0.7670     1.5540    -6.6950 ca         1 02H      -0.070000
     27 O51          1.5030     1.1670     2.1150 oh         1 02H      -0.651800
     28 HN1         -0.3340     0.8450     0.4190 hn         1 02H       0.462133
     29 H4           0.3900    -1.2060     2.2420 hc         1 02H       0.087700
     30 H4A          1.7560    -2.1320     1.6040 hc         1 02H       0.087700
     31 H5           3.0580     1.2950    -0.6460 hc         1 02H       0.088200
     32 H5A          1.5470     2.1320    -0.2650 hc         1 02H       0.088200
     33 H7           3.1600    -1.2680     3.4900 hx         1 02H       0.124700
     34 H8           1.9500    -3.4590     3.6080 hc         1 02H       0.089700
     35 H8A          0.5980    -2.6320     4.3930 hc         1 02H       0.089700
     36 H17          2.7240     0.0780    -5.1500 ha         1 02H       0.162000
     37 H20         -0.2850     2.1930    -1.8530 ha         1 02H       0.125000
     38 H2           1.8300    -0.8850    -0.5110 hx         1 02H       0.132700
     39 H3           3.0620    -0.0000     1.4410 h1         1 02H       0.103700
     40 HN6          1.5450    -0.4470     5.3250 hn         1 02H       0.461467
     41 H11          1.9530    -1.9520     8.8250 ha         1 02H       0.162500
     42 H12          4.1500    -3.0610     8.9660 ha         1 02H       0.168000
     43 H14          4.0680    -3.7600     4.7540 ha         1 02H       0.126000
     44 H16          3.3710     0.1820    -2.7750 ha         1 02H       0.125000
     45 H19         -0.9460     2.0960    -4.2240 ha         1 02H       0.162000
     46 H45          2.2380     0.0030    -6.8970 h4         1 02H       0.024100
     47 H47         -0.4460     0.8100    -9.9640 h4         1 02H       0.046100
     48 H48         -2.0200     1.8850    -8.4050 ha         1 02H       0.158000
     49 H49         -1.4430     2.0250    -5.9910 ha         1 02H       0.136000
     50 HO51         2.1860     1.8160     2.1410 ho         1 02H       0.457000
     51 H1          -0.3340    -0.0590    -0.9420 hn         1 02H       0.462133
     52 H6           2.2270     0.5910     4.2630 hn         1 02H       0.461467
     53 H10          0.8090    -1.7530     6.6490 ha         1 02H       0.126000
     54 H13         -0.3340    -0.7810     0.5290 hn         1 02H       0.462133
     55 H63          0.6780     0.0750     4.0570 hn         1 02H       0.461467
     56 H15          5.2080    -3.9650     6.9310 ha         1 02H       0.162500
@<TRIPOS>BOND
     1     1    11 1   
     2     1    28 1   
     3    12     2 1   
     4     2     4 1   
     5     2    29 1   
     6     2    30 1   
     7     3     8 1   
     8     3    11 1   
     9     3    31 1   
    10     3    32 1   
    11     4     5 1   
    12     4    13 1   
    13     4    33 1   
    14     5    14 1   
    15     5    34 1   
    16     5    35 1   
    17    14     6 ar  
    18     6    15 ar  
    19     6    53 1   
    20    17     7 ar  
    21     7    16 ar  
    22     7    56 1   
    23    18     8 ar  
    24     8    10 ar  
    25     9    18 ar  
    26     9    19 ar  
    27     9    36 1   
    28    20    10 ar  
    29    10    37 1   
    30    11    12 1   
    31    11    38 1   
    32    27    12 1   
    33    12    39 1   
    34    13    40 1   
    35    14    17 ar  
    36    15    16 ar  
    37    15    41 1   
    38    16    42 1   
    39    17    43 1   
    40    18    44 1   
    41    21    19 1   
    42    19    20 ar  
    43    20    45 1   
    44    22    21 ar  
    45    21    26 ar  
    46    23    22 ar  
    47    22    46 1   
    48    23    24 ar  
    49    24    25 ar  
    50    24    47 1   
    51    25    26 ar  
    52    25    48 1   
    53    26    49 1   
    54    27    50 1   
    55     1    51 1   
    56    13    52 1   
    57    54     1 1   
    58    55    13 1   
@<TRIPOS>SUBSTRUCTURE
     1 02H         1 TEMP              0 ****  ****    0 ROOT
