@<TRIPOS>MOLECULE
02N
   21    21     1     0     0
SMALL
bcc


@<TRIPOS>ATOM
      1 C20          0.0000     0.0000     0.0000 c3         1 02N       0.042100
      2 C21          1.5070     0.0000     0.0000 ca         1 02N      -0.229300
      3 C22          2.1990     0.0000     1.1970 ca         1 02N      -0.061000
      4 C24          4.2720     0.0010    -0.0010 ca         1 02N      -0.022300
      5 C26          2.1980    -0.0040    -1.1980 ca         1 02N      -0.061000
      6 N16         -0.4890    -1.3860     0.0050 nz         1 02N       0.072400
      7 C23          3.5810     0.0010     1.1970 ca         1 02N      -0.085000
      8 C27          5.7790     0.0020    -0.0010 c3         1 02N       0.050200
      9 C25          3.5810    -0.0040    -1.1980 ca         1 02N      -0.085000
     10 H20         -0.3610     0.5070    -0.8870 hx         1 02N       0.080700
     11 H20A        -0.3610     0.5140     0.8830 hx         1 02N       0.080700
     12 H22          1.6570    -0.0000     2.1350 ha         1 02N       0.107000
     13 H26          1.6560    -0.0080    -2.1360 ha         1 02N       0.107000
     14 HN16        -0.1710    -1.8480     0.8340 hn         1 02N       0.222467
     15 H23          4.1220     0.0010     2.1350 ha         1 02N       0.129500
     16 H27          6.1390     0.9870     0.2690 hc         1 02N       0.025033
     17 H27A         6.1400    -0.2560    -0.9890 hc         1 02N       0.025033
     18 H27B         6.1400    -0.7240     0.7170 hc         1 02N       0.025033
     19 H25          4.1220    -0.0050    -2.1360 ha         1 02N       0.129500
     20 H2          -0.1390    -1.8660    -0.8000 hn         1 02N       0.222467
     21 H163        -1.4900    -1.3860    -0.0140 hn         1 02N       0.222467
@<TRIPOS>BOND
     1     1     2 1   
     2     1     6 1   
     3     1    10 1   
     4     1    11 1   
     5     2     3 ar  
     6     2     5 ar  
     7     3     7 ar  
     8     3    12 1   
     9     4     7 ar  
    10     4     8 1   
    11     4     9 ar  
    12     5     9 ar  
    13     5    13 1   
    14     6    14 1   
    15     6    20 1   
    16     6    21 1   
    17     7    15 1   
    18     8    16 1   
    19     8    17 1   
    20     8    18 1   
    21     9    19 1   
@<TRIPOS>SUBSTRUCTURE
     1 02N         1 TEMP              0 ****  ****    0 ROOT
