@<TRIPOS>MOLECULE
02N
   21    21     1     0     0
SMALL
bcc


@<TRIPOS>ATOM
      1 C20          0.0280    -0.0320    -0.0470 c3         1 02N       0.180100
      2 C21          1.5120    -0.0010    -0.0240 ca         1 02N      -0.217300
      3 C22          2.1940     0.0890     1.1970 ca         1 02N      -0.089000
      4 C24          4.3150    -0.0240     0.0260 ca         1 02N      -0.004300
      5 C26          2.2350    -0.1060    -1.2190 ca         1 02N      -0.089000
      6 N16         -0.5340     1.3590    -0.1680 nz         1 02N      -0.846600
      7 C23          3.5840     0.0790     1.2190 ca         1 02N      -0.128000
      8 C27          5.7940    -0.0560     0.0540 c3         1 02N      -0.078800
      9 C25          3.6260    -0.1160    -1.1920 ca         1 02N      -0.128000
     10 H20         -0.3540    -0.6260    -0.9280 hx         1 02N       0.111700
     11 H20A        -0.3860    -0.4790     0.9040 hx         1 02N       0.111700
     12 H22          1.6340     0.1500     2.1430 ha         1 02N       0.138000
     13 H26          1.7080    -0.2000    -2.1820 ha         1 02N       0.138000
     14 HN16        -0.2210     1.9280     0.6250 hn         1 02N       0.456800
     15 H23          4.1180     0.1450     2.1820 ha         1 02N       0.162000
     16 H27          6.1450    -1.1160     0.1510 hc         1 02N       0.068367
     17 H27A         6.2240     0.3690    -0.8870 hc         1 02N       0.068367
     18 H27B         6.1930     0.5240     0.9230 hc         1 02N       0.068367
     19 H25          4.1920    -0.2040    -2.1340 ha         1 02N       0.162000
     20 H2          -0.1930     1.7950    -1.0300 hn         1 02N       0.456800
     21 H163        -1.5560     1.3320    -0.1830 hn         1 02N       0.456800
@<TRIPOS>BOND
     1     1     2 1   
     2     1     6 1   
     3     1    10 1   
     4     1    11 1   
     5     2     3 ar  
     6     2     5 ar  
     7     3     7 ar  
     8     3    12 1   
     9     4     7 ar  
    10     4     8 1   
    11     4     9 ar  
    12     5     9 ar  
    13     5    13 1   
    14     6    14 1   
    15     6    20 1   
    16     6    21 1   
    17     7    15 1   
    18     8    16 1   
    19     8    17 1   
    20     8    18 1   
    21     9    19 1   
@<TRIPOS>SUBSTRUCTURE
     1 02N         1 TEMP              0 ****  ****    0 ROOT
