@<TRIPOS>MOLECULE
molecule
   23    23     1     0     0
SMALL
bcc


@<TRIPOS>ATOM
      1 C28          0.0000     0.0000     0.0000 c          1 02Q       0.889600
      2 C33          4.2140     1.1870     1.3450 ca         1 02Q      -0.084300
      3 C34          5.5960     1.1880     1.3510 ca         1 02Q      -0.135000
      4 C35          6.2880    -0.0040     1.4500 ca         1 02Q      -0.155000
      5 C37          5.5970    -1.1980     1.5430 ca         1 02Q      -0.142000
      6 C36          4.2150    -1.2000     1.5370 ca         1 02Q      -0.129000
      7 C32          3.5230    -0.0060     1.4430 ca         1 02Q      -0.053300
      8 C31          2.0160    -0.0060     1.4430 c3         1 02Q      -0.029100
      9 C9           1.5070     0.0000     0.0000 c3         1 02Q      -0.177400
     10 O29         -0.6050     0.0000     1.0460 o          1 02Q      -0.854800
     11 H38          2.6770     2.5140     1.9850 hc         1 02Q       0.043367
     12 H38A         3.0200     2.5690     0.2510 hc         1 02Q       0.043367
     13 H38B         4.1410     3.3140     1.3980 hc         1 02Q       0.043367
     14 H34          6.1370     2.1240     1.2790 ha         1 02Q       0.114000
     15 H35          7.3710    -0.0030     1.4550 ha         1 02Q       0.109000
     16 H37          6.1390    -2.1330     1.6190 ha         1 02Q       0.111000
     17 H36          3.6740    -2.1350     1.6120 ha         1 02Q       0.131000
     18 H31          1.6550    -0.8920     1.9500 hc         1 02Q       0.055700
     19 H31A         1.6550     0.8770     1.9570 hc         1 02Q       0.055700
     20 H9           1.8680     0.8870    -0.5070 hc         1 02Q       0.032700
     21 H9A          1.8680    -0.8830    -0.5140 hc         1 02Q       0.032700
     22 OXT         -0.6710     0.0050    -1.1630 o          1 02Q      -0.854800
     23 C38          3.4600     2.4880     1.2370 c3         1 02Q      -0.045800
@<TRIPOS>BOND
     1    10     1 1
     2     1     9 1
     3    23     2 1
     4    23    11 1
     5    23    12 1
     6    23    13 1
     7     7     2 ar
     8     2     3 ar
     9     3     4 ar
    10     3    14 1
    11     5     4 ar
    12     4    15 1
    13     6     5 ar
    14     5    16 1
    15     7     6 ar
    16     6    17 1
    17     8     7 1
    18     9     8 1
    19     8    18 1
    20     8    19 1
    21     9    20 1
    22     9    21 1
    23     1    22 1
@<TRIPOS>SUBSTRUCTURE
     1 02Q         1 TEMP              0 ****  ****    0 ROOT
