@<TRIPOS>MOLECULE
02R
   18    18     1     0     0
SMALL
bcc


@<TRIPOS>ATOM
      1 C4           0.0000     0.0000     0.0000 ca         1 02R      -0.028000
      2 C5           1.3820     0.0000     0.0000 ca         1 02R      -0.071000
      3 C6           2.0740     0.0000     1.1990 ca         1 02R      -0.031600
      4 N30          2.5860     1.3630     4.0060 nz         1 02R       0.071400
      5 C1           1.3810    -0.0000     2.3960 ca         1 02R      -0.208300
      6 C2          -0.0020    -0.0010     2.3950 ca         1 02R      -0.052000
      7 C3          -0.6910    -0.0000     1.1980 ca         1 02R      -0.076000
      8 Cl7          3.8100    -0.0010     1.2000 cl         1 02R       0.002600
      9 H4          -0.5420     0.0000    -0.9380 ha         1 02R       0.129000
     10 H5           1.9230     0.0000    -0.9380 ha         1 02R       0.138000
     11 H8           1.4680    -0.3430     4.4850 hx         1 02R       0.086700
     12 H8A          2.9900    -0.6600     3.6410 hx         1 02R       0.086700
     13 HN30         1.8230     2.0020     3.8900 hn         1 02R       0.225133
     14 H2          -0.5440    -0.0010     3.3330 ha         1 02R       0.115000
     15 H3          -1.7750    -0.0000     1.1970 ha         1 02R       0.130000
     16 H1           3.3240     1.6070     3.3760 hn         1 02R       0.225133
     17 C8           2.1330    -0.0000     3.7020 c3         1 02R       0.033100
     18 H303         2.9210     1.4130     4.9480 hn         1 02R       0.225133
@<TRIPOS>BOND
     1     1     2 ar  
     2     1     7 ar  
     3     1     9 1   
     4     2     3 ar  
     5     2    10 1   
     6     3     5 ar  
     7     3     8 1   
     8     4    13 1   
     9     4    16 1   
    10     4    17 1   
    11     4    18 1   
    12     5     6 ar  
    13     5    17 1   
    14     6     7 ar  
    15     6    14 1   
    16     7    15 1   
    17    11    17 1   
    18    12    17 1   
@<TRIPOS>SUBSTRUCTURE
     1 02R         1 TEMP              0 ****  ****    0 ROOT
