@<TRIPOS>MOLECULE
02R
   18    18     1     0     0
SMALL
bcc


@<TRIPOS>ATOM
      1 C4           0.0290     0.0030    -0.0180 ca         1 02R      -0.069000
      2 C5           1.4200     0.1100     0.0580 ca         1 02R      -0.102000
      3 C6           2.0400     0.1370     1.3080 ca         1 02R       0.021400
      4 N30          2.6670     1.2560     4.1470 nz         1 02R      -0.848600
      5 C1           1.2790     0.0530     2.4870 ca         1 02R      -0.187300
      6 C2          -0.1140    -0.0450     2.3940 ca         1 02R      -0.079000
      7 C3          -0.7350    -0.0720     1.1460 ca         1 02R      -0.112000
      8 Cl7          3.7380     0.2770     1.3890 cl         1 02R      -0.086400
      9 C8           1.9270    -0.0080     3.8280 c3         1 02R       0.172100
     10 H4          -0.4620    -0.0240    -1.0060 ha         1 02R       0.171000
     11 H5           2.0230     0.1670    -0.8640 ha         1 02R       0.177000
     12 H8           1.1600    -0.1710     4.6400 hx         1 02R       0.117700
     13 H8A          2.6760    -0.8550     3.8610 hx         1 02R       0.117700
     14 HN30         3.3970     1.4110     3.4330 hn         1 02R       0.461800
     15 H2          -0.7260    -0.1170     3.3080 ha         1 02R       0.151000
     16 H3          -1.8330    -0.1580     1.0830 ha         1 02R       0.169000
     17 H1           2.0250     2.0530     4.1350 hn         1 02R       0.461800
     18 H303         3.1030     1.1860     5.0700 hn         1 02R       0.461800
@<TRIPOS>BOND
     1     1     2 ar  
     2     1     7 ar  
     3     1    10 1   
     4     2     3 ar  
     5     2    11 1   
     6     3     5 ar  
     7     3     8 1   
     8     4     9 1   
     9     4    14 1   
    10     4    17 1   
    11     4    18 1   
    12     5     6 ar  
    13     5     9 1   
    14     6     7 ar  
    15     6    15 1   
    16     7    16 1   
    17     9    12 1   
    18     9    13 1   
@<TRIPOS>SUBSTRUCTURE
     1 02R         1 TEMP              0 ****  ****    0 ROOT
