@<TRIPOS>MOLECULE
molecule
   28    29     1     0     0
SMALL
bcc


@<TRIPOS>ATOM
      1 C8           0.0000     0.0000     0.0000 ca         1 02S      -0.134600
      2 C27         -0.7400     0.0060    -1.2760 c          1 02S       0.885200
      3 O28         -0.1340     0.0110    -2.3290 o          1 02S      -0.840800
      4 C34          1.3980     0.0000     0.0000 ca         1 02S      -0.068000
      5 C33          2.0840     0.0000     1.1930 ca         1 02S      -0.217500
      6 C30         -0.6960    -0.0010     1.2130 ca         1 02S      -0.068000
      7 C31         -0.0010    -0.0010     2.4010 ca         1 02S      -0.217500
      8 C32          1.3880    -0.0010     2.3970 ca         1 02S       0.101100
      9 O35          2.0690    -0.0010     3.5710 os         1 02S      -0.339900
     10 C36          1.2930    -0.0010     4.7710 c3         1 02S       0.188700
     11 C37          2.2130    -0.0010     5.9650 ca         1 02S      -0.079300
     12 C38          2.6390    -1.1990     6.5080 ca         1 02S      -0.105000
     13 C39          3.4830    -1.1990     7.6030 ca         1 02S      -0.138000
     14 C40          3.9010    -0.0010     8.1540 ca         1 02S      -0.131000
     15 C41          3.4740     1.1960     7.6110 ca         1 02S      -0.138000
     16 C42          2.6340     1.1950     6.5130 ca         1 02S      -0.105000
     17 H34          1.9410     0.0010    -0.9380 ha         1 02S       0.152500
     18 H33          3.1670     0.0000     1.1940 ha         1 02S       0.114000
     19 H30         -1.7790    -0.0010     1.2180 ha         1 02S       0.152500
     20 H31         -0.5390    -0.0020     3.3420 ha         1 02S       0.114000
     21 H36          0.6680    -0.8850     4.7970 h1         1 02S       0.038700
     22 H36A         0.6680     0.8840     4.7970 h1         1 02S       0.038700
     23 H38          2.3120    -2.1370     6.0770 ha         1 02S       0.136000
     24 H39          3.8180    -2.1370     8.0290 ha         1 02S       0.123500
     25 H40          4.5610    -0.0010     9.0130 ha         1 02S       0.120000
     26 H41          3.8020     2.1350     8.0410 ha         1 02S       0.123500
     27 H42          2.2990     2.1330     6.0870 ha         1 02S       0.136000
     28 OXT         -2.0870     0.0050    -1.2740 o          1 02S      -0.840800
@<TRIPOS>BOND
     1     2     1 1   
     2     1     4 ar  
     3     1     6 ar  
     4     3     2 1   
     5     4     5 ar  
     6     4    17 1   
     7     5     8 ar  
     8     5    18 1   
     9     6     7 ar  
    10     6    19 1   
    11     7     8 ar  
    12     7    20 1   
    13     8     9 1   
    14     9    10 1   
    15    10    11 1   
    16    10    21 1   
    17    10    22 1   
    18    11    16 ar  
    19    11    12 ar  
    20    12    13 ar  
    21    12    23 1   
    22    13    14 ar  
    23    13    24 1   
    24    15    14 ar  
    25    14    25 1   
    26    16    15 ar  
    27    15    26 1   
    28    16    27 1   
    29     2    28 1   
@<TRIPOS>SUBSTRUCTURE
     1 02S         1 TEMP              0 ****  ****    0 ROOT
