@<TRIPOS>MOLECULE
02S
   28    29     1     0     0
SMALL
bcc


@<TRIPOS>ATOM
      1 C8           0.0000     0.0000     0.0000 ca         1 02S      -0.138600
      2 C27         -0.7400     0.0060    -1.2760 c          1 02S       0.978200
      3 O28         -0.1340     0.0110    -2.3290 o          1 02S      -0.888800
      4 C34          1.3980     0.0000     0.0000 ca         1 02S      -0.035500
      5 C33          2.0840     0.0000     1.1930 ca         1 02S      -0.211000
      6 C30         -0.6960    -0.0010     1.2130 ca         1 02S      -0.035500
      7 C31         -0.0010    -0.0010     2.4010 ca         1 02S      -0.211000
      8 C32          1.3880    -0.0010     2.3970 ca         1 02S       0.107100
      9 O35          2.0690    -0.0010     3.5710 os         1 02S      -0.312900
     10 C36          1.2930    -0.0010     4.7710 c3         1 02S       0.256700
     11 C37          2.2130    -0.0010     5.9650 ca         1 02S      -0.093300
     12 C38          2.6390    -1.1990     6.5080 ca         1 02S      -0.077000
     13 C39          3.4830    -1.1990     7.6030 ca         1 02S      -0.112000
     14 C40          3.9010    -0.0010     8.1540 ca         1 02S      -0.106000
     15 C41          3.4740     1.1960     7.6110 ca         1 02S      -0.112000
     16 C42          2.6340     1.1950     6.5130 ca         1 02S      -0.077000
     17 H34          1.9410     0.0010    -0.9380 ha         1 02S       0.123500
     18 H33          3.1670     0.0000     1.1940 ha         1 02S       0.098500
     19 H30         -1.7790    -0.0010     1.2180 ha         1 02S       0.123500
     20 H31         -0.5390    -0.0020     3.3420 ha         1 02S       0.098500
     21 H36          0.6680    -0.8850     4.7970 h1         1 02S       0.004700
     22 H36A         0.6680     0.8840     4.7970 h1         1 02S       0.004700
     23 H38          2.3120    -2.1370     6.0770 ha         1 02S       0.109000
     24 H39          3.8180    -2.1370     8.0290 ha         1 02S       0.097000
     25 H40          4.5610    -0.0010     9.0130 ha         1 02S       0.094000
     26 H41          3.8020     2.1350     8.0410 ha         1 02S       0.097000
     27 H42          2.2990     2.1330     6.0870 ha         1 02S       0.109000
     28 OXT         -2.0870     0.0050    -1.2740 o          1 02S      -0.888800
@<TRIPOS>BOND
     1     1     2 1   
     2     1     4 ar  
     3     1     6 ar  
     4     2     3 1   
     5     2    28 1   
     6     4     5 ar  
     7     4    17 1   
     8     5     8 ar  
     9     5    18 1   
    10     6     7 ar  
    11     6    19 1   
    12     7     8 ar  
    13     7    20 1   
    14     8     9 1   
    15     9    10 1   
    16    10    11 1   
    17    10    21 1   
    18    10    22 1   
    19    11    12 ar  
    20    11    16 ar  
    21    12    13 ar  
    22    12    23 1   
    23    13    14 ar  
    24    13    24 1   
    25    14    15 ar  
    26    14    25 1   
    27    15    16 ar  
    28    15    26 1   
    29    16    27 1   
@<TRIPOS>SUBSTRUCTURE
     1 02S         1 TEMP              0 ****  ****    0 ROOT
