@<TRIPOS>MOLECULE
02T
   18    18     1     0     0
SMALL
bcc


@<TRIPOS>ATOM
      1 C4          -0.0480    -0.0610     0.0400 cc         1 02T      -0.128100
      2 C5           1.3290     0.0730    -0.0090 cd         1 02T      -0.151000
      3 C6           1.8980     0.0920     1.2980 cd         1 02T      -0.047300
      4 C7           3.3430     0.2150     1.5370 c3         1 02T      -0.062800
      5 S3          -0.6120    -0.1560     1.5880 ss         1 02T       0.157200
      6 C1           0.9050    -0.0210     2.2780 cc         1 02T      -0.305400
      7 C2           1.1540    -0.0990     3.7190 c3         1 02T       0.229100
      8 N29          1.6650     1.2160     4.2490 nz         1 02T      -0.849600
      9 H4          -0.6960    -0.1090    -0.8400 h4         1 02T       0.204000
     10 H5           1.9240     0.1480    -0.9240 ha         1 02T       0.184000
     11 H7           3.6500     1.2930     1.5320 hc         1 02T       0.059700
     12 H7A          3.9180    -0.3030     0.7270 hc         1 02T       0.059700
     13 H7B          3.6380    -0.2410     2.5150 hc         1 02T       0.059700
     14 H2           0.2160    -0.3530     4.2940 hx         1 02T       0.110700
     15 H2A          1.9470    -0.8720     3.9510 hx         1 02T       0.110700
     16 HN29         1.8890     1.1390     5.2440 hn         1 02T       0.457467
     17 H1           0.9610     1.9470     4.1140 hn         1 02T       0.457467
     18 H293         2.5090     1.4820     3.7260 hn         1 02T       0.457467
@<TRIPOS>BOND
     1     1     2 2   
     2     1     5 1   
     3     1     9 1   
     4     2     3 1   
     5     2    10 1   
     6     3     4 1   
     7     3     6 2   
     8     4    11 1   
     9     4    12 1   
    10     4    13 1   
    11     5     6 1   
    12     6     7 1   
    13     7     8 1   
    14     7    14 1   
    15     7    15 1   
    16     8    16 1   
    17     8    17 1   
    18     8    18 1   
@<TRIPOS>SUBSTRUCTURE
     1 02T         1 TEMP              0 ****  ****    0 ROOT
