@<TRIPOS>MOLECULE
02T
   18    18     1     0     0
SMALL
bcc


@<TRIPOS>ATOM
      1 C4           0.0000     0.0000     0.0000 cc         1 02T       0.102900
      2 C5           1.3340     0.0000     0.0000 cd         1 02T      -0.141000
      3 C6           1.9180     0.0000     1.2550 cd         1 02T      -0.019300
      4 C7           3.4110     0.0000     1.4540 c3         1 02T       0.061200
      5 S3          -0.5890    -0.0010     1.6570 ss         1 02T      -0.208800
      6 C1           1.0580    -0.0020     2.2750 cc         1 02T      -0.176400
      7 C2           1.4390    -0.0020     3.7330 c3         1 02T       0.085100
      8 N29          1.5630     1.3830     4.2060 nz         1 02T       0.066400
      9 H4          -0.6250     0.0000    -0.8850 h4         1 02T       0.170000
     10 H5           1.9160     0.0010    -0.9130 ha         1 02T       0.149000
     11 H7           3.6810    -0.7740     2.1620 hc         1 02T       0.020700
     12 H7A          3.9010    -0.1900     0.5060 hc         1 02T       0.020700
     13 H7B          3.7240     0.9640     1.8350 hc         1 02T       0.020700
     14 H2           0.6750    -0.5130     4.3060 hx         1 02T       0.085200
     15 H2A          2.3870    -0.5130     3.8580 hx         1 02T       0.085200
     16 HN29         1.3710     1.4190     5.1880 hn         1 02T       0.226133
     17 H1           0.9100     1.9630     3.7170 hn         1 02T       0.226133
     18 H293         2.4930     1.7120     4.0370 hn         1 02T       0.226133
@<TRIPOS>BOND
     1     1     2 2   
     2     1     5 1   
     3     1     9 1   
     4     2     3 1   
     5     2    10 1   
     6     3     4 1   
     7     3     6 2   
     8     4    11 1   
     9     4    12 1   
    10     4    13 1   
    11     5     6 1   
    12     6     7 1   
    13     7     8 1   
    14     7    14 1   
    15     7    15 1   
    16     8    16 1   
    17     8    17 1   
    18     8    18 1   
@<TRIPOS>SUBSTRUCTURE
     1 02T         1 TEMP              0 ****  ****    0 ROOT
