@<TRIPOS>MOLECULE
molecule
   18    18     1     0     0
SMALL
bcc


@<TRIPOS>ATOM
      1 C4           0.0000     0.0000     0.0000 cc         1 02T       0.003900
      2 C5           1.3340     0.0000     0.0000 cd         1 02T      -0.168000
      3 C6           1.9180     0.0000     1.2550 cd         1 02T      -0.027300
      4 C7           3.4110     0.0000     1.4540 c3         1 02T      -0.052800
      5 S3          -0.5890    -0.0010     1.6570 ss         1 02T      -0.091800
      6 C1           1.0580    -0.0020     2.2750 cc         1 02T      -0.201400
      7 C2           1.4390    -0.0020     3.7330 c3         1 02T       0.202100
      8 N29          1.5630     1.3830     4.2060 nz         1 02T      -0.812600
      9 H4          -0.6250     0.0000    -0.8850 h4         1 02T       0.202000
     10 H5           1.9160     0.0010    -0.9130 ha         1 02T       0.180000
     11 H7           3.6810    -0.7740     2.1620 hc         1 02T       0.057367
     12 H7A          3.9010    -0.1900     0.5060 hc         1 02T       0.057367
     13 H7B          3.7240     0.9640     1.8350 hc         1 02T       0.057367
     14 H2           0.6750    -0.5130     4.3060 hx         1 02T       0.114700
     15 H2A          2.3870    -0.5130     3.8580 hx         1 02T       0.114700
     16 HN29         1.3710     1.4190     5.1880 hn         1 02T       0.455467
     17 H1           0.9100     1.9630     3.7170 hn         1 02T       0.455467
     18 H293         2.4930     1.7120     4.0370 hn         1 02T       0.455467
@<TRIPOS>BOND
     1     2     1 2   
     2     1     5 1   
     3     1     9 1   
     4     3     2 1   
     5     2    10 1   
     6     4     3 1   
     7     3     6 2   
     8     4    11 1   
     9     4    12 1   
    10     4    13 1   
    11     6     5 1   
    12     7     6 1   
    13     7     8 1   
    14     7    14 1   
    15     7    15 1   
    16     8    16 1   
    17     8    17 1   
    18    18     8 1   
@<TRIPOS>SUBSTRUCTURE
     1 02T         1 TEMP              0 ****  ****    0 ROOT
