@<TRIPOS>MOLECULE
02U
   50    51     1     0     0
SMALL
bcc


@<TRIPOS>ATOM
      1 C            0.0000     0.0000     0.0000 c2         1 02U       0.400000
      2 O            1.2080     0.0000     0.0000 o          1 02U      -0.641500
      3 OXT         -0.6720     0.0000     1.1620 o          1 02U      -0.641500
      4 CH3         -0.7540     0.0060    -1.3050 c3         1 02U      -0.163000
      5 H1          -1.3770    -0.8780    -1.3670 hc         1 02U       0.043000
      6 H2          -1.3760     0.8910    -1.3580 hc         1 02U       0.043000
      7 C1           0.2400     0.0120    -2.4680 c3         1 02U      -0.095000
      8 C2          -0.5240     0.0180    -3.7930 c3         1 02U      -0.117000
      9 C3           0.4700     0.0240    -4.9560 c3         1 02U      -0.108000
     10 C4          -0.2950     0.0310    -6.2810 c3         1 02U      -0.113000
     11 C5           0.7000     0.0370    -7.4430 c3         1 02U      -0.138000
     12 C6          -0.0650     0.0430    -8.7690 DU         1 02U       0.015000
     13 C7           0.9150     0.0490    -9.9150 c2         1 02U      -0.133000
     14 C8           0.8460    -0.8760   -10.8390 c2         1 02U      -0.130000
     15 C9           1.8250    -0.8700   -11.9850 DU         1 02U       0.015000
     16 C10          2.5320    -2.2250   -12.0580 c3         1 02U      -0.146000
     17 C11          3.5270    -2.2180   -13.2210 c3         1 02U      -0.109000
     18 C12          4.2330    -3.5730   -13.2940 c3         1 02U      -0.092000
     19 C13          3.2150    -4.6620   -13.6390 c3         1 02U      -0.125000
     20 C14          5.3150    -3.5270   -14.3770 c3         1 02U      -0.106000
     21 C15          6.1040    -4.8380   -14.3660 c3         1 02U      -0.117000
     22 H3           0.8640     0.8960    -2.4060 hc         1 02U       0.060000
     23 H4           0.8630    -0.8730    -2.4150 hc         1 02U       0.060000
     24 H5          -1.1470    -0.8660    -3.8550 hc         1 02U       0.043500
     25 H6          -1.1460     0.9030    -3.8470 hc         1 02U       0.043500
     26 H7           1.0930    -0.8610    -4.9030 hc         1 02U       0.053500
     27 H8           1.0940     0.9080    -4.8940 hc         1 02U       0.053500
     28 H9          -0.9180    -0.8530    -6.3430 hc         1 02U       0.048500
     29 H10         -0.9170     0.9160    -6.3330 hc         1 02U       0.048500
     30 H11          1.3220     0.9220    -7.3820 hc         1 02U       0.063000
     31 H12          1.3230    -0.8470    -7.3900 hc         1 02U       0.063000
     32 H13         -0.6870    -0.8410    -8.8300 ha         1 02U       0.055000
     33 H14         -0.6880     0.9280    -8.8220 ha         1 02U       0.055000
     34 H15         -0.1080     0.3990    -9.9820 DU         1 02U       0.027000
     35 H16          0.7790    -0.2190   -11.6990 DU         1 02U       0.012000
     36 H17          2.5580    -0.0880   -11.8290 ha         1 02U       0.051000
     37 H18          1.2950    -0.6880   -12.9120 ha         1 02U       0.051000
     38 H19          3.0620    -2.4060   -11.1310 hc         1 02U       0.068000
     39 H20          1.7990    -3.0060   -12.2140 hc         1 02U       0.068000
     40 H21          2.9970    -2.0370   -14.1480 hc         1 02U       0.052000
     41 H22          4.2600    -1.4370   -13.0650 hc         1 02U       0.052000
     42 H23          4.6900    -3.7950   -12.3370 hc         1 02U       0.072000
     43 H24          2.6900    -4.3920   -14.5470 hc         1 02U       0.045333
     44 H25          2.5040    -4.7620   -12.8270 hc         1 02U       0.045333
     45 H26          3.7290    -5.6040   -13.7850 hc         1 02U       0.045333
     46 H27          5.9860    -2.7000   -14.1810 hc         1 02U       0.051000
     47 H28          4.8500    -3.3930   -15.3460 hc         1 02U       0.051000
     48 H29          5.5610    -5.5900   -14.9250 hc         1 02U       0.040667
     49 H30          6.2340    -5.1720   -13.3440 hc         1 02U       0.040667
     50 H31          7.0740    -4.6790   -14.8200 hc         1 02U       0.040667
@<TRIPOS>BOND
     1     1     2 1   
     2     1     3 1   
     3     1     4 1   
     4     4     5 1   
     5     4     6 1   
     6     4     7 1   
     7     7     8 1   
     8     7    22 1   
     9     7    23 1   
    10     8     9 1   
    11     8    24 1   
    12     8    25 1   
    13     9    10 1   
    14     9    26 1   
    15     9    27 1   
    16    10    11 1   
    17    10    28 1   
    18    10    29 1   
    19    11    12 1   
    20    11    30 1   
    21    11    31 1   
    22    12    13 1   
    23    12    32 1   
    24    12    33 1   
    25    12    34 1   
    26    13    14 1   
    27    13    34 1   
    28    14    15 1   
    29    14    35 1   
    30    15    16 1   
    31    15    35 1   
    32    15    36 1   
    33    15    37 1   
    34    16    17 1   
    35    16    38 1   
    36    16    39 1   
    37    17    18 1   
    38    17    40 1   
    39    17    41 1   
    40    18    19 1   
    41    18    20 1   
    42    18    42 1   
    43    19    43 1   
    44    19    44 1   
    45    19    45 1   
    46    20    21 1   
    47    20    46 1   
    48    20    47 1   
    49    21    48 1   
    50    21    49 1   
    51    21    50 1   
@<TRIPOS>SUBSTRUCTURE
     1 02U         1 TEMP              0 ****  ****    0 ROOT
