@<TRIPOS>MOLECULE
molecule
   50    49     1     0     0
SMALL
bcc


@<TRIPOS>ATOM
      1 C            0.0000     0.0000     0.0000 c          1 02U       0.891600
      2 O            1.2080     0.0000     0.0000 o          1 02U      -0.858300
      3 OXT         -0.6720     0.0000     1.1620 o          1 02U      -0.858300
      4 CH3         -0.7540     0.0060    -1.3050 c3         1 02U      -0.183400
      5 H1          -1.3760     0.8910    -1.3580 hc         1 02U       0.026700
      6 H2          -1.3770    -0.8780    -1.3670 hc         1 02U       0.026700
      7 C1           0.2400     0.0120    -2.4680 c3         1 02U      -0.063400
      8 C2          -0.5240     0.0180    -3.7930 c3         1 02U      -0.088400
      9 C3           0.4700     0.0240    -4.9560 c3         1 02U      -0.081400
     10 C4          -0.2950     0.0310    -6.2810 c3         1 02U      -0.084400
     11 C5           0.7000     0.0370    -7.4430 c3         1 02U      -0.078400
     12 C6          -0.0650     0.0430    -8.7690 c3         1 02U      -0.051200
     13 C7           0.9150     0.0490    -9.9150 c2         1 02U      -0.163200
     14 C8           0.8460    -0.8760   -10.8390 c2         1 02U      -0.191200
     15 C9           1.8250    -0.8700   -11.9850 c3         1 02U      -0.045200
     16 C10          2.5320    -2.2250   -12.0580 c3         1 02U      -0.078400
     17 C11          3.5270    -2.2180   -13.2210 c3         1 02U      -0.078400
     18 C12          4.2330    -3.5730   -13.2940 c3         1 02U      -0.074700
     19 C13          3.2150    -4.6620   -13.6390 c3         1 02U      -0.091100
     20 C14          5.3150    -3.5270   -14.3770 c3         1 02U      -0.080400
     21 C15          6.1040    -4.8380   -14.3660 c3         1 02U      -0.092100
     22 H3           0.8630    -0.8730    -2.4150 hc         1 02U       0.044700
     23 H4           0.8640     0.8960    -2.4060 hc         1 02U       0.044700
     24 H5          -1.1460     0.9030    -3.8470 hc         1 02U       0.028700
     25 H6          -1.1470    -0.8660    -3.8550 hc         1 02U       0.028700
     26 H7           1.0940     0.9080    -4.8940 hc         1 02U       0.038700
     27 H8           1.0930    -0.8610    -4.9030 hc         1 02U       0.038700
     28 H9          -0.9180    -0.8530    -6.3430 hc         1 02U       0.036200
     29 H10         -0.9170     0.9160    -6.3330 hc         1 02U       0.036200
     30 H11          1.3230    -0.8470    -7.3900 hc         1 02U       0.041200
     31 H12          1.3220     0.9220    -7.3820 hc         1 02U       0.041200
     32 H13         -0.6880     0.9270    -8.8220 hc         1 02U       0.044700
     33 H14         -0.6870    -0.8410    -8.8300 hc         1 02U       0.044700
     34 H15          1.6750     0.8180    -9.9730 ha         1 02U       0.121000
     35 H16          0.0860    -1.6450   -10.7810 ha         1 02U       0.123000
     36 H17          2.5580    -0.0880   -11.8290 hc         1 02U       0.042200
     37 H18          1.2950    -0.6880   -12.9120 hc         1 02U       0.042200
     38 H19          3.0620    -2.4060   -11.1310 hc         1 02U       0.045700
     39 H20          1.7990    -3.0060   -12.2140 hc         1 02U       0.045700
     40 H21          2.9970    -2.0370   -14.1480 hc         1 02U       0.039700
     41 H22          4.2600    -1.4370   -13.0650 hc         1 02U       0.039700
     42 H23          4.6900    -3.7950   -12.3370 hc         1 02U       0.052700
     43 H24          2.3260    -4.2060   -14.0570 hc         1 02U       0.033700
     44 H25          3.6460    -5.3430   -14.3630 hc         1 02U       0.033700
     45 H26          2.9530    -5.2080   -12.7410 hc         1 02U       0.033700
     46 H27          4.8500    -3.3930   -15.3460 hc         1 02U       0.038700
     47 H28          5.9860    -2.7000   -14.1810 hc         1 02U       0.038700
     48 H29          5.5760    -5.5820   -14.9500 hc         1 02U       0.032033
     49 H30          7.0850    -4.6720   -14.7930 hc         1 02U       0.032033
     50 H31          6.2090    -5.1870   -13.3460 hc         1 02U       0.032033
@<TRIPOS>BOND
     1     1     2 1
     2     1     4 1
     3     4     5 1
     4     4     6 1
     5     1     3 1
     6     4     7 1
     7     7     8 1
     8     8     9 1
     9     9    10 1
    10    10    11 1
    11    11    12 1
    12    12    13 1
    13    13    14 2
    14    14    15 1
    15    15    16 1
    16    16    17 1
    17    17    18 1
    18    18    19 1
    19    18    20 1
    20    20    21 1
    21     7    22 1
    22     7    23 1
    23     8    24 1
    24     8    25 1
    25     9    26 1
    26     9    27 1
    27    10    28 1
    28    10    29 1
    29    11    30 1
    30    11    31 1
    31    12    32 1
    32    12    33 1
    33    13    34 1
    34    14    35 1
    35    15    36 1
    36    15    37 1
    37    16    38 1
    38    16    39 1
    39    17    40 1
    40    17    41 1
    41    18    42 1
    42    19    43 1
    43    19    44 1
    44    19    45 1
    45    20    46 1
    46    20    47 1
    47    21    48 1
    48    21    49 1
    49    21    50 1
@<TRIPOS>SUBSTRUCTURE
     1 02U         1 TEMP              0 ****  ****    0 ROOT
