@<TRIPOS>MOLECULE
molecule
   27    28     1     0     0
SMALL
bcc


@<TRIPOS>ATOM
      1 C1           0.0000     0.0000     0.0000 c3         1 02W       0.042300
      2 C2           1.5300     0.0000     0.0000 c3         1 02W       0.060800
      3 N1           2.0190     0.0000     1.3860 nz         1 02W      -0.808600
      4 C14         -1.1860    -0.6240    -3.4000 ca         1 02W       0.104400
      5 C15         -1.5410    -1.5260    -4.4060 ca         1 02W      -0.051000
      6 C16         -1.4660    -2.8690    -4.1740 ca         1 02W      -0.131000
      7 C17         -1.0400    -3.3520    -2.9450 ca         1 02W      -0.086000
      8 C18         -0.6840    -2.4810    -1.9370 ca         1 02W      -0.150000
      9 C19         -0.7610    -1.1120    -2.1540 ca         1 02W      -0.105200
     10 N3          -1.1540     0.7320    -3.3260 nc         1 02W      -0.550100
     11 N4          -0.4880    -0.0000    -1.3820 na         1 02W      -0.177300
     12 C20         -0.7420     1.0960    -2.1480 cd         1 02W       0.410800
     13 C21         -0.5610     2.5230    -1.6990 c3         1 02W      -0.099400
     14 H1          -0.3610    -0.8840     0.5110 h1         1 02W       0.077700
     15 H1A         -0.3610     0.8850     0.5100 h1         1 02W       0.077700
     16 H2           1.8910     0.8850    -0.5110 hx         1 02W       0.124200
     17 H2A          1.8910    -0.8850    -0.5110 hx         1 02W       0.124200
     18 HN1          3.0200    -0.0080     1.3860 hn         1 02W       0.459467
     19 H17         -0.9860    -4.4210    -2.7760 ha         1 02W       0.147000
     20 H18         -0.3520    -2.8630    -0.9790 ha         1 02W       0.112000
     21 H21         -1.0860     2.6770    -0.7640 hc         1 02W       0.061700
     22 H21A        -0.9600     3.1910    -2.4520 hc         1 02W       0.061700
     23 H21B         0.4940     2.7260    -1.5580 hc         1 02W       0.061700
     24 H3           1.6790    -0.8130     1.8590 hn         1 02W       0.459467
     25 H15         -1.8750    -1.1600    -5.3700 ha         1 02W       0.161000
     26 H13          1.7080     0.8300     1.8490 hn         1 02W       0.459467
     27 H16         -1.7430    -3.5650    -4.9570 ha         1 02W       0.153000
@<TRIPOS>BOND
     1     2     1 1
     2     1    11 1
     3     1    14 1
     4     1    15 1
     5     3     2 1
     6     2    16 1
     7     2    17 1
     8     3    18 1
     9     9     4 ar
    10     5     4 ar
    11     4    10 1
    12     6     5 ar
    13     5    25 1
    14     7     6 ar
    15     6    27 1
    16     7     8 ar
    17     7    19 1
    18     8     9 ar
    19     8    20 1
    20     9    11 1
    21    12    10 2
    22    11    12 1
    23    12    13 1
    24    13    21 1
    25    13    22 1
    26    13    23 1
    27     3    24 1
    28    26     3 1
@<TRIPOS>SUBSTRUCTURE
     1 02W         1 TEMP              0 ****  ****    0 ROOT
