@<TRIPOS>MOLECULE
02W
   27    28     1     0     0
SMALL
bcc


@<TRIPOS>ATOM
      1 C1          -0.0380     0.1780    -0.0070 c3         1 02W       0.049300
      2 C2           1.4370    -0.3230    -0.0760 c3         1 02W       0.038800
      3 N1           2.1040    -0.2980     1.2540 nz         1 02W      -0.830600
      4 C14         -0.8610     0.7390    -3.5040 ca         1 02W       0.076400
      5 C15         -0.7840     1.5270    -4.6560 ca         1 02W      -0.050000
      6 C16         -0.2350     2.8010    -4.5410 ca         1 02W      -0.134000
      7 C17          0.2230     3.3000    -3.3140 ca         1 02W      -0.093000
      8 C18          0.1570     2.5460    -2.1450 ca         1 02W      -0.149000
      9 C19         -0.3820     1.2630    -2.2410 ca         1 02W      -0.092200
     10 N3          -1.3700    -0.5690    -3.3110 nc         1 02W      -0.511100
     11 N4          -0.6550     0.2640    -1.2770 na         1 02W      -0.192300
     12 C20         -1.2170    -0.8460    -2.0130 cd         1 02W       0.414800
     13 C21         -1.6380    -2.0950    -1.3240 c3         1 02W      -0.120400
     14 H1          -0.0500     1.2040     0.4650 h1         1 02W       0.078700
     15 H1A         -0.6330    -0.5350     0.6350 h1         1 02W       0.078700
     16 H2           2.0310     0.3330    -0.7770 hx         1 02W       0.123200
     17 H2A          1.4630    -1.3830    -0.4610 hx         1 02W       0.123200
     18 HN1          3.0690    -0.6360     1.1670 hn         1 02W       0.462800
     19 H17          0.6400     4.3190    -3.2720 ha         1 02W       0.148000
     20 H18          0.4950     2.9600    -1.1870 ha         1 02W       0.125000
     21 H21         -2.4480    -1.8690    -0.5850 hc         1 02W       0.068367
     22 H21A        -2.0340    -2.8320    -2.0690 hc         1 02W       0.068367
     23 H21B        -0.7710    -2.5560    -0.7910 hc         1 02W       0.068367
     24 H3           1.5990    -0.8980     1.9150 hn         1 02W       0.462800
     25 H15         -1.1560     1.1480    -5.6200 ha         1 02W       0.168000
     26 H13          2.1180     0.6580     1.6250 hn         1 02W       0.462800
     27 H16         -0.1650     3.4390    -5.4370 ha         1 02W       0.155000
@<TRIPOS>BOND
     1     1     2 1   
     2     1    11 1   
     3     1    14 1   
     4     1    15 1   
     5     2     3 1   
     6     2    16 1   
     7     2    17 1   
     8     3    18 1   
     9     3    24 1   
    10     3    26 1   
    11     4     5 ar  
    12     4     9 ar  
    13     4    10 1   
    14     5     6 ar  
    15     5    25 1   
    16     6     7 ar  
    17     6    27 1   
    18     7     8 ar  
    19     7    19 1   
    20     8     9 ar  
    21     8    20 1   
    22     9    11 1   
    23    10    12 2   
    24    11    12 1   
    25    12    13 1   
    26    13    21 1   
    27    13    22 1   
    28    13    23 1   
@<TRIPOS>SUBSTRUCTURE
     1 02W         1 TEMP              0 ****  ****    0 ROOT
