@<TRIPOS>MOLECULE
molecule
   21    20     1     0     0
SMALL
bcc


@<TRIPOS>ATOM
      1 C3           0.0000     0.0000     0.0000 c          1 02X       0.916600
      2 O1           1.2080     0.0000     0.0000 o          1 02X      -0.880800
      3 C4          -0.7540     0.0000     1.3040 c3         1 02X      -0.159400
      4 C5           0.2320    -0.1510     2.4640 c3         1 02X      -0.147700
      5 C6          -0.5130     0.0020     3.7910 c3         1 02X      -0.053700
      6 C7           0.8740    -1.5130     2.4030 c          1 02X       0.916600
      7 O2           0.5730    -2.2840     1.5220 o          1 02X      -0.871800
      8 C8           0.4920    -0.0180     4.9450 c3         1 02X      -0.080100
      9 C9          -1.2710     1.3310     3.7990 c3         1 02X      -0.080100
     10 H4          -1.4550    -0.8260     1.3160 hc         1 02X       0.010700
     11 H4A         -1.2950     0.9330     1.4090 hc         1 02X       0.010700
     12 H5           0.9970     0.6130     2.3890 hc         1 02X       0.051700
     13 H6          -1.2140    -0.8150     3.9080 hc         1 02X       0.029700
     14 H8           1.3670     0.5590     4.6720 hc         1 02X       0.014700
     15 H8A          0.0360     0.4130     5.8280 hc         1 02X       0.014700
     16 H8B          0.7840    -1.0400     5.1520 hc         1 02X       0.014700
     17 H9          -1.4900     1.6160     4.8210 hc         1 02X       0.014700
     18 H9A         -2.1970     1.2220     3.2480 hc         1 02X       0.014700
     19 H9B         -0.6620     2.0970     3.3330 hc         1 02X       0.014700
     20 OXT         -0.6710     0.0060    -1.1630 o          1 02X      -0.880800
     21 O3           1.7800    -1.8710     3.3270 o          1 02X      -0.871800
@<TRIPOS>BOND
     1     2     1 1
     2     3     1 1
     3     4     3 1
     4     3    10 1
     5     3    11 1
     6     6     4 1
     7     4     5 1
     8     4    12 1
     9     5     8 1
    10     5     9 1
    11     5    13 1
    12     7     6 1
    13     8    14 1
    14     8    15 1
    15     8    16 1
    16     9    17 1
    17     9    18 1
    18     9    19 1
    19     1    20 1
    20     6    21 1
@<TRIPOS>SUBSTRUCTURE
     1 02X         1 TEMP              0 ****  ****    0 ROOT
