@<TRIPOS>MOLECULE
02Z
   27    28     1     0     0
SMALL
bcc


@<TRIPOS>ATOM
      1 C1           0.1840    -0.2070     0.1750 c          1 02Z       0.609700
      2 N1           3.8140     0.2450     0.7630 nc         1 02Z      -0.785000
      3 S1           1.7660     0.2390     2.4180 ss         1 02Z      -0.200300
      4 N2           2.7160    -0.0710    -1.3450 nv         1 02Z      -0.894500
      5 N3           4.4150     0.5340     3.0560 nu         1 02Z      -0.677300
      6 C12          1.4300     0.0070     0.7670 cd         1 02Z      -0.470000
      7 C13          2.6650     0.0580    -0.0040 cc         1 02Z       0.806200
      8 C14          3.4900     0.3470     2.0840 cd         1 02Z       0.821300
      9 C15          4.1210     0.5140     4.4430 ca         1 02Z       0.091600
     10 C16          2.9470     1.0930     4.9620 ca         1 02Z      -0.143000
     11 C17          2.7130     1.0660     6.3360 ca         1 02Z      -0.099000
     12 C18          3.6340     0.4800     7.2020 ca         1 02Z      -0.110000
     13 C19          4.8050    -0.0820     6.6910 ca         1 02Z      -0.099000
     14 C20          5.0570    -0.0730     5.3230 ca         1 02Z      -0.143000
     15 O21         -0.1560    -0.3690    -1.0010 o          1 02Z      -0.529100
     16 N22         -1.0060    -0.2600     1.1390 nz         1 02Z      -0.754400
     17 HN2          3.5850    -0.0360    -1.8300 hn         1 02Z       0.477800
     18 HN2A         1.8750    -0.2090    -1.8610 hn         1 02Z       0.477800
     19 HN3          5.3860     0.5580     2.8030 hn         1 02Z       0.485800
     20 H16          2.2220     1.6060     4.3080 ha         1 02Z       0.146500
     21 H17          1.7950     1.5250     6.7370 ha         1 02Z       0.154000
     22 H18          3.4430     0.4670     8.2860 ha         1 02Z       0.157000
     23 H19          5.5400    -0.5390     7.3740 ha         1 02Z       0.154000
     24 H20          5.9880    -0.5200     4.9400 ha         1 02Z       0.146500
     25 HN22        -1.8590    -0.4590     0.6050 hn         1 02Z       0.458467
     26 HN2B        -0.8590    -0.9940     1.8340 hn         1 02Z       0.458467
     27 H223        -1.1070     0.6380     1.6160 hn         1 02Z       0.458467
@<TRIPOS>BOND
     1     1     6 1   
     2     1    15 2   
     3     1    16 1   
     4     2     7 1   
     5     2     8 2   
     6     3     6 1   
     7     3     8 1   
     8     4     7 1   
     9     4    17 1   
    10     4    18 1   
    11     5     8 1   
    12     5     9 1   
    13     5    19 1   
    14     6     7 2   
    15     9    10 ar  
    16     9    14 ar  
    17    10    11 ar  
    18    10    20 1   
    19    11    12 ar  
    20    11    21 1   
    21    12    13 ar  
    22    12    22 1   
    23    13    14 ar  
    24    13    23 1   
    25    14    24 1   
    26    16    25 1   
    27    16    26 1   
    28    16    27 1   
@<TRIPOS>SUBSTRUCTURE
     1 02Z         1 TEMP              0 ****  ****    0 ROOT
