@<TRIPOS>MOLECULE
02Z
   27    28     1     0     0
SMALL
bcc


@<TRIPOS>ATOM
      1 C1           0.0000     0.0000     0.0000 c          1 02Z       0.417700
      2 N1           3.5060     0.0000     0.8280 nc         1 02Z      -0.673000
      3 S1           1.5530     0.0000     2.3680 ss         1 02Z      -0.343300
      4 N2           2.6280    -0.0000    -1.3800 nv         1 02Z      -0.630500
      5 N3           4.1920    -0.0010     3.1000 nu         1 02Z      -0.128300
      6 C12          1.2610    -0.0000     0.6310 cd         1 02Z      -0.433000
      7 C13          2.4860     0.0000     0.0000 cc         1 02Z       0.716200
      8 C14          3.2400    -0.0000     2.1010 cd         1 02Z       0.629300
      9 C15          5.5460    -0.1250     2.7750 ca         1 02Z      -0.092400
     10 C16          6.5110     0.4720     3.5750 ca         1 02Z      -0.079500
     11 C17          7.8470     0.3470     3.2520 ca         1 02Z      -0.077500
     12 C18          8.2260    -0.3720     2.1330 ca         1 02Z      -0.070000
     13 C19          7.2670    -0.9680     1.3340 ca         1 02Z      -0.077500
     14 C20          5.9280    -0.8520     1.6560 ca         1 02Z      -0.079500
     15 O21         -0.0720    -0.0000    -1.2160 o          1 02Z      -0.492100
     16 N22         -1.1260    -0.0050     0.7420 nz         1 02Z       0.205600
     17 HN2          2.7080     0.8660    -1.8750 hn         1 02Z       0.305300
     18 HN2A         2.6530    -0.8670    -1.8810 hn         1 02Z       0.305300
     19 HN3          3.9130     0.0900     4.0570 hn         1 02Z       0.291800
     20 H16          6.2190     0.9940     4.4790 ha         1 02Z       0.114000
     21 H17          8.6000     0.8150     3.8750 ha         1 02Z       0.118500
     22 H18          9.2750    -0.4670     1.8810 ha         1 02Z       0.117000
     23 H19          7.5650    -1.5250     0.4540 ha         1 02Z       0.118500
     24 H20          5.3570    -1.7290     1.3770 ha         1 02Z       0.114000
     25 HN22        -1.9230     0.0040     0.1380 hn         1 02Z       0.240800
     26 HN2B        -1.1470    -0.8280     1.3110 hn         1 02Z       0.240800
     27 H223        -1.1420     0.8060     1.3280 hn         1 02Z       0.240800
@<TRIPOS>BOND
     1     1     6 1   
     2     1    15 2   
     3     1    16 1   
     4     2     7 1   
     5     2     8 2   
     6     3     6 1   
     7     3     8 1   
     8     4     7 1   
     9     4    17 1   
    10     4    18 1   
    11     5     8 1   
    12     5     9 1   
    13     5    19 1   
    14     6     7 2   
    15     9    10 ar  
    16     9    14 ar  
    17    10    11 ar  
    18    10    20 1   
    19    11    12 ar  
    20    11    21 1   
    21    12    13 ar  
    22    12    22 1   
    23    13    14 ar  
    24    13    23 1   
    25    14    24 1   
    26    16    25 1   
    27    16    26 1   
    28    16    27 1   
@<TRIPOS>SUBSTRUCTURE
     1 02Z         1 TEMP              0 ****  ****    0 ROOT
