@<TRIPOS>MOLECULE
030
   24    25     1     0     0
SMALL
bcc


@<TRIPOS>ATOM
      1 C21          0.0000     0.0000     0.0000 c          1 030       0.573100
      2 O22          1.2140     0.0000     0.0000 o          1 030      -0.637500
      3 O23         -0.6720     0.0000     1.1650 os         1 030      -0.441900
      4 C24          0.1190     0.0010     2.3830 c3         1 030       0.192100
      5 C25          0.3820     1.4450     2.8550 c3         1 030      -0.062400
      6 C26          0.3150     1.4280     4.3920 c3         1 030       0.177100
      7 O27         -0.8360     2.1890     4.8140 os         1 030      -0.396600
      8 C28         -1.2290     1.6310     6.0850 c3         1 030       0.179400
      9 C29         -1.0610     0.1050     5.9150 c3         1 030       0.149100
     10 C30         -0.0030    -0.0360     4.8010 c3         1 030      -0.095700
     11 C31         -0.6770    -0.6400     3.5470 c3         1 030      -0.032400
     12 O41         -0.5910    -0.4840     7.1280 oh         1 030      -0.587800
     13 H24          1.0550    -0.5230     2.2330 h1         1 030       0.037700
     14 H25          1.3650     1.7650     2.5320 hc         1 030       0.037700
     15 H25A        -0.3780     2.1070     2.4600 hc         1 030       0.037700
     16 H26          1.2310     1.7870     4.8460 h1         1 030       0.010700
     17 H28         -0.5800     1.9950     6.8720 h1         1 030       0.005200
     18 H28A        -2.2630     1.8730     6.2970 h1         1 030       0.005200
     19 H29         -1.9960    -0.3450     5.6050 h1         1 030       0.016700
     20 H30          0.8760    -0.5850     5.1170 hc         1 030       0.050700
     21 H31         -0.5660    -1.7180     3.5360 hc         1 030       0.020700
     22 H31A        -1.7210    -0.3540     3.4990 hc         1 030       0.020700
     23 HO41        -1.2760    -1.0090     7.5080 ho         1 030       0.380000
     24 OXT         -0.6740     0.0120    -1.1650 o          1 030      -0.637500
@<TRIPOS>BOND
     1     1     2 1   
     2     1     3 1   
     3     1    24 1   
     4     3     4 1   
     5     4     5 1   
     6     4    11 1   
     7     4    13 1   
     8     5     6 1   
     9     5    14 1   
    10     5    15 1   
    11     6     7 1   
    12     6    10 1   
    13     6    16 1   
    14     7     8 1   
    15     8     9 1   
    16     8    17 1   
    17     8    18 1   
    18     9    10 1   
    19     9    12 1   
    20     9    19 1   
    21    10    11 1   
    22    10    20 1   
    23    11    21 1   
    24    11    22 1   
    25    12    23 1   
@<TRIPOS>SUBSTRUCTURE
     1 030         1 TEMP              0 ****  ****    0 ROOT
