@<TRIPOS>MOLECULE
030
   24    25     1     0     0
SMALL
bcc


@<TRIPOS>ATOM
      1 C21          0.0000     0.0000     0.0000 c          1 030       0.572100
      2 O22          1.2140     0.0000     0.0000 o          1 030      -0.638500
      3 O23         -0.6720     0.0000     1.1650 os         1 030      -0.438900
      4 C24          0.1190     0.0010     2.3830 c3         1 030       0.206100
      5 C25          0.3820     1.4450     2.8550 c3         1 030      -0.135400
      6 C26          0.3150     1.4280     4.3920 c3         1 030       0.198100
      7 O27         -0.8360     2.1890     4.8140 os         1 030      -0.398600
      8 C28         -1.2290     1.6310     6.0850 c3         1 030       0.084400
      9 C29         -1.0610     0.1050     5.9150 c3         1 030       0.154100
     10 C30         -0.0030    -0.0360     4.8010 c3         1 030      -0.105700
     11 C31         -0.6770    -0.6400     3.5470 c3         1 030      -0.057400
     12 O41         -0.5910    -0.4840     7.1280 oh         1 030      -0.591800
     13 H24          1.0550    -0.5230     2.2330 h1         1 030       0.036700
     14 H25          1.3490     1.0370     2.5870 hc         1 030       0.069700
     15 H25A        -0.0180     2.2600     2.2650 hc         1 030       0.069700
     16 H26          1.2310     1.7870     4.8460 h1         1 030       0.008700
     17 H28         -0.1920     1.9030     6.2410 h1         1 030       0.041700
     18 H28A        -1.9940     2.0990     6.6930 h1         1 030       0.041700
     19 H29         -1.9960    -0.3450     5.6050 h1         1 030       0.012700
     20 H30          0.8150    -0.5240     5.3160 hc         1 030       0.051700
     21 H31          0.0440    -1.3760     3.8830 hc         1 030       0.037200
     22 H31A        -1.7330    -0.8800     3.5320 hc         1 030       0.037200
     23 HO41        -1.3200    -0.8480     7.6030 ho         1 030       0.381000
     24 OXT         -0.6740     0.0100    -1.1650 o          1 030      -0.638500
@<TRIPOS>BOND
     1     1     2 1   
     2     1     3 1   
     3     1    24 1   
     4     3     4 1   
     5     4     5 1   
     6     4    11 1   
     7     4    13 1   
     8     5     6 1   
     9     5    14 1   
    10     5    15 1   
    11     6     7 1   
    12     6    10 1   
    13     6    16 1   
    14     7     8 1   
    15     8     9 1   
    16     8    17 1   
    17     8    18 1   
    18     9    10 1   
    19     9    12 1   
    20     9    19 1   
    21    10    11 1   
    22    10    20 1   
    23    11    21 1   
    24    11    22 1   
    25    12    23 1   
@<TRIPOS>SUBSTRUCTURE
     1 030         1 TEMP              0 ****  ****    0 ROOT
