@<TRIPOS>MOLECULE
molecule
   24    25     1     0     0
SMALL
bcc


@<TRIPOS>ATOM
      1 C21          0.0000     0.0000     0.0000 c          1 030       0.469100
      2 O22          1.2140     0.0000     0.0000 o          1 030      -0.582500
      3 O23         -0.6720     0.0000     1.1650 os         1 030      -0.464900
      4 C24          0.1190     0.0010     2.3830 c3         1 030       0.170100
      5 C25          0.3820     1.4450     2.8550 c3         1 030      -0.098400
      6 C26          0.3150     1.4280     4.3920 c3         1 030       0.127100
      7 O27         -0.8360     2.1890     4.8140 os         1 030      -0.404600
      8 C28         -1.2290     1.6310     6.0850 c3         1 030       0.105400
      9 C29         -1.0610     0.1050     5.9150 c3         1 030       0.109100
     10 C30         -0.0030    -0.0360     4.8010 c3         1 030      -0.110700
     11 C31         -0.6770    -0.6400     3.5470 c3         1 030      -0.080400
     12 O41         -0.5910    -0.4840     7.1280 oh         1 030      -0.608800
     13 H24          1.0550    -0.5230     2.2330 h1         1 030       0.065700
     14 H25          1.3650     1.7650     2.5320 hc         1 030       0.068200
     15 H25A        -0.3780     2.1070     2.4600 hc         1 030       0.068200
     16 H26          1.2310     1.7870     4.8460 h1         1 030       0.042700
     17 H28         -0.5800     1.9950     6.8720 h1         1 030       0.045200
     18 H28A        -2.2630     1.8730     6.2970 h1         1 030       0.045200
     19 H29         -1.9960    -0.3450     5.6050 h1         1 030       0.047700
     20 H30          0.8760    -0.5850     5.1170 hc         1 030       0.077700
     21 H31         -0.5660    -1.7180     3.5360 hc         1 030       0.050200
     22 H31A        -1.7210    -0.3540     3.4990 hc         1 030       0.050200
     23 HO41        -1.2760    -1.0090     7.5080 ho         1 030       0.393000
     24 OXT         -0.6740     0.0120    -1.1650 o          1 030      -0.582500
@<TRIPOS>BOND
     1     1     2 1
     2     1     3 1
     3     3     4 1
     4     4     5 1
     5     4    11 1
     6     5     6 1
     7     6     7 1
     8     6    10 1
     9     7     8 1
    10     8     9 1
    11     9    10 1
    12     9    12 1
    13    10    11 1
    14     4    13 1
    15     5    14 1
    16     5    15 1
    17     6    16 1
    18     8    17 1
    19     8    18 1
    20     9    19 1
    21    10    20 1
    22    11    21 1
    23    11    22 1
    24    12    23 1
    25     1    24 1
@<TRIPOS>SUBSTRUCTURE
     1 030         1 TEMP              0 ****  ****    0 ROOT
