@<TRIPOS>MOLECULE
molecule
   51    54     1     0     0
SMALL
bcc


@<TRIPOS>ATOM
      1 C10          0.0000     0.0000     0.0000 ca         1 032       0.028400
      2 C15          3.0190     0.0020     8.1850 cc         1 032      -0.030100
      3 C17          0.4860     0.0050     8.0930 c          1 032       0.617900
      4 C20         -0.0970     1.6640    10.2540 ca         1 032       0.172900
      5 C21         -0.2920     1.6320    11.6270 ca         1 032       0.096600
      6 C22         -0.3240     0.4160    12.2970 ca         1 032      -0.136000
      7 C24          0.0340    -0.7510    10.2340 ca         1 032       0.125900
      8 C01          2.1200     0.0000     3.6880 cp         1 032      -0.183300
      9 C02          3.5160    -0.0000     3.7010 ca         1 032       0.460200
     10 N03          4.1890    -0.0010     4.8300 nb         1 032      -0.706000
     11 C04          1.4300     0.0010     4.8990 ca         1 032      -0.030000
     12 N14          4.0490     0.0010     7.3040 na         1 032      -0.261100
     13 C16          1.8330     0.0030     7.5090 cd         1 032      -0.213400
     14 C05          2.1750     0.0010     6.0740 ca         1 032      -0.173100
     15 C06          3.5800     0.0010     6.0090 ca         1 032       0.458800
     16 C07          1.3800     0.0010     2.4010 cp         1 032      -0.027000
     17 C18          0.0680     0.4680     9.5480 ca         1 032      -0.201600
     18 C23         -0.1620    -0.7680    11.6010 ca         1 032      -0.156000
     19 F26         -0.0700     2.8470     9.6000 f          1 032      -0.122900
     20 N27         -0.4570     2.8270    12.3390 nu         1 032      -0.760500
     21 S28          0.1580     2.9710    13.8690 s6         1 032       1.328900
     22 O29         -0.1110     4.3180    14.2300 o          1 032      -0.622300
     23 O30         -0.4250     1.8910    14.5850 o          1 032      -0.622300
     24 C31          1.9420     2.7110    13.6680 c3         1 032      -0.222600
     25 C32          2.6310     2.8200    15.0290 c3         1 032      -0.063400
     26 C33          4.1360     2.6000    14.8570 c3         1 032      -0.082100
     27 C08          2.0770     0.0000     1.1940 ca         1 032      -0.113500
     28 C09          1.3850     0.0000     0.0000 ca         1 032      -0.117000
     29 C11         -0.6960     0.0010     1.1970 ca         1 032      -0.117000
     30 C12         -0.0130     0.0000     2.3950 ca         1 032      -0.113500
     31 Cl13        -0.8650     0.0070    -1.5050 cl         1 032      -0.108400
     32 H15          3.1210     0.0030     9.2630 h4         1 032       0.178000
     33 H22         -0.4770     0.3940    13.3690 ha         1 032       0.199000
     34 H02          4.0560    -0.0010     2.7620 h4         1 032       0.032100
     35 H04          0.3470     0.0020     4.9250 ha         1 032       0.165000
     36 H23         -0.1880    -1.7130    12.1310 ha         1 032       0.158000
     37 HN27        -0.9750     3.5820    11.9360 hn         1 032       0.476800
     38 H31          2.1180     1.7260    13.2520 h1         1 032       0.100200
     39 H31A         2.3430     3.4620    12.9980 h1         1 032       0.100200
     40 H32          2.2310     2.0690    15.6980 hc         1 032       0.057200
     41 H32A         2.4550     3.8050    15.4440 hc         1 032       0.057200
     42 H33          4.6250     2.6780    15.8210 hc         1 032       0.039033
     43 H33A         4.5370     3.3520    14.1880 hc         1 032       0.039033
     44 H33B         4.3120     1.6160    14.4410 hc         1 032       0.039033
     45 H08          3.1600     0.0000     1.1930 ha         1 032       0.141500
     46 H09          1.9250    -0.0000    -0.9390 ha         1 032       0.146000
     47 H11         -1.7800     0.0000     1.1920 ha         1 032       0.146000
     48 H12         -0.5590     0.0010     3.3310 ha         1 032       0.141500
     49 O19         -0.4900     0.0980     7.3710 o          1 032      -0.509100
     50 H18          5.0160    -0.0000     7.5590 hn         1 032       0.311700
     51 F25          0.3270    -1.9000     9.5850 f          1 032      -0.125900
@<TRIPOS>BOND
     1     1    28 ar
     2     1    29 ar
     3     1    31 1
     4     2    12 1
     5     2    13 2
     6     2    32 1
     7     3    13 1
     8     3    17 1
     9     3    49 2
    10     4     5 ar
    11     4    17 ar
    12     4    19 1
    13     5     6 ar
    14     5    20 1
    15     6    18 ar
    16     6    33 1
    17     7    17 ar
    18     7    18 ar
    19     7    51 1
    20     8     9 ar
    21     8    11 ar
    22     8    16 1
    23     9    10 ar
    24     9    34 1
    25    10    15 ar
    26    11    14 ar
    27    11    35 1
    28    12    15 1
    29    12    50 1
    30    13    14 1
    31    14    15 ar
    32    16    27 ar
    33    16    30 ar
    34    18    36 1
    35    20    21 1
    36    20    37 1
    37    21    22 2
    38    21    23 2
    39    21    24 1
    40    24    25 1
    41    24    38 1
    42    24    39 1
    43    25    26 1
    44    25    40 1
    45    25    41 1
    46    26    42 1
    47    26    43 1
    48    26    44 1
    49    27    28 ar
    50    27    45 1
    51    28    46 1
    52    29    30 ar
    53    29    47 1
    54    30    48 1
@<TRIPOS>SUBSTRUCTURE
     1 032         1 TEMP              0 ****  ****    0 ROOT
