@<TRIPOS>MOLECULE
032
   51    54     1     0     0
SMALL
bcc


@<TRIPOS>ATOM
      1 C10          0.2340     0.3710     0.1840 ca         1 032       0.019400
      2 C15          5.5600    -1.1350     6.9630 cc         1 032      -0.028100
      3 C17          6.2120    -2.4540     4.8670 c          1 032       0.630900
      4 C20          8.6560    -2.5060     5.4480 ca         1 032       0.138900
      5 C21          9.7890    -3.0950     6.0890 ca         1 032       0.108600
      6 C22          9.5850    -4.2600     6.8580 ca         1 032      -0.115000
      7 C24          7.2090    -4.2210     6.3700 ca         1 032       0.157900
      8 C01          2.4460     0.0640     3.8070 cp         1 032      -0.170300
      9 C02          2.0480     0.8270     4.9460 ca         1 032       0.424200
     10 N03          2.6550     0.8200     6.1360 nb         1 032      -0.662000
     11 C04          3.5610    -0.7700     3.9030 ca         1 032      -0.031000
     12 N14          4.5820    -0.2240     7.3290 na         1 032      -0.273100
     13 C16          5.3950    -1.5260     5.6250 cd         1 032      -0.225400
     14 C05          4.2380    -0.8190     5.1220 ca         1 032      -0.154100
     15 C06          3.7430    -0.0030     6.2180 ca         1 032       0.410800
     16 C07          1.6870     0.1690     2.5670 cp         1 032      -0.031000
     17 C18          7.3700    -3.0610     5.5880 ca         1 032      -0.208600
     18 C23          8.3200    -4.8080     7.0030 ca         1 032      -0.158000
     19 F26          8.8250    -1.4020     4.6800 f          1 032      -0.125900
     20 N27         11.0620    -2.5310     5.9230 nu         1 032      -0.773500
     21 S28         12.2950    -2.4860     6.9900 s6         1 032       1.457900
     22 O29         13.4580    -2.1190     6.2860 o          1 032      -0.643300
     23 O30         12.3530    -3.6670     7.7540 o          1 032      -0.643300
     24 C31         11.8610    -1.2170     8.0570 c3         1 032      -0.328600
     25 C32         11.8560     0.1570     7.4260 c3         1 032      -0.051400
     26 C33         11.6820     1.2430     8.4560 c3         1 032      -0.089100
     27 C08          2.3470     0.1660     1.3290 ca         1 032      -0.111500
     28 C09          1.6280     0.2670     0.1410 ca         1 032      -0.123000
     29 C11         -0.4380     0.3720     1.4100 ca         1 032      -0.123000
     30 C12          0.2880     0.2710     2.5930 ca         1 032      -0.111500
     31 Cl13        -0.6480     0.4960    -1.2630 cl         1 032      -0.092400
     32 H15          6.3210    -1.4550     7.6810 h4         1 032       0.176000
     33 H22         10.4400    -4.7560     7.3560 ha         1 032       0.189000
     34 H02          1.1720     1.4990     4.8740 h4         1 032       0.029100
     35 H04          3.9060    -1.3850     3.0560 ha         1 032       0.170000
     36 H23          8.1770    -5.7190     7.6050 ha         1 032       0.165000
     37 HN27        11.1650    -2.0780     5.0380 hn         1 032       0.466800
     38 H31         10.8660    -1.3930     8.5440 h1         1 032       0.117200
     39 H31A        12.5970    -1.2070     8.9100 h1         1 032       0.117200
     40 H32         11.0250     0.2240     6.6740 hc         1 032       0.055200
     41 H32A        12.8250     0.3140     6.8760 hc         1 032       0.055200
     42 H33         12.5220     1.2290     9.1910 hc         1 032       0.038700
     43 H33A        11.6640     2.2430     7.9590 hc         1 032       0.038700
     44 H33B        10.7240     1.1070     9.0140 hc         1 032       0.038700
     45 H08          3.4450     0.0870     1.2960 ha         1 032       0.141500
     46 H09          2.1570     0.2650    -0.8240 ha         1 032       0.149000
     47 H11         -1.5360     0.4490     1.4420 ha         1 032       0.149000
     48 H12         -0.2440     0.2610     3.5570 ha         1 032       0.141500
     49 O19          5.9890    -2.7410     3.6860 o          1 032      -0.510100
     50 H18          4.4710     0.1950     8.2160 hn         1 032       0.316700
     51 F25          5.9890    -4.7860     6.5180 f          1 032      -0.121900
@<TRIPOS>BOND
     1     1    28 ar  
     2     1    29 ar  
     3     1    31 1   
     4     2    12 1   
     5     2    13 2   
     6     2    32 1   
     7     3    13 1   
     8     3    17 1   
     9     3    49 2   
    10     4     5 ar  
    11     4    17 ar  
    12     4    19 1   
    13     5     6 ar  
    14     5    20 1   
    15     6    18 ar  
    16     6    33 1   
    17     7    17 ar  
    18     7    18 ar  
    19     7    51 1   
    20     8     9 ar  
    21     8    11 ar  
    22     8    16 1   
    23     9    10 ar  
    24     9    34 1   
    25    10    15 ar  
    26    11    14 ar  
    27    11    35 1   
    28    12    15 1   
    29    12    50 1   
    30    13    14 1   
    31    14    15 ar  
    32    16    27 ar  
    33    16    30 ar  
    34    18    36 1   
    35    20    21 1   
    36    20    37 1   
    37    21    22 2   
    38    21    23 2   
    39    21    24 1   
    40    24    25 1   
    41    24    38 1   
    42    24    39 1   
    43    25    26 1   
    44    25    40 1   
    45    25    41 1   
    46    26    42 1   
    47    26    43 1   
    48    26    44 1   
    49    27    28 ar  
    50    27    45 1   
    51    28    46 1   
    52    29    30 ar  
    53    29    47 1   
    54    30    48 1   
@<TRIPOS>SUBSTRUCTURE
     1 032         1 TEMP              0 ****  ****    0 ROOT
