@<TRIPOS>MOLECULE
035
   30    29     1     0     0
SMALL
bcc


@<TRIPOS>ATOM
      1 C1           0.4510     1.0990     0.4460 c          1 035       0.898600
      2 C2           1.7630     0.4410    -0.0640 c3         1 035       0.145100
      3 C3           2.7650     0.4100     1.1220 c3         1 035      -0.091400
      4 C4           2.3740    -0.5270     2.2530 c3         1 035      -0.073400
      5 C5           3.3350    -0.4680     3.4350 c3         1 035      -0.072400
      6 C6           2.9740    -1.4200     4.5620 c3         1 035      -0.088400
      7 C7           3.9370    -1.3650     5.7560 c3         1 035       0.201400
      8 O8           0.4220     2.2850     0.9100 o          1 035      -0.920800
      9 O9          -0.6240     0.4060     0.4560 o          1 035      -0.920800
     10 O10          2.3190     1.1390    -1.1250 os         1 035      -0.584200
     11 O11          3.5510    -2.2590     6.7410 os         1 035      -0.586200
     12 P12          2.7210     0.3690    -2.5970 p5         1 035       1.336900
     13 O13          1.8050     0.9750    -3.6410 o          1 035      -0.960833
     14 O14          4.1670     0.7780    -2.8010 o          1 035      -0.960833
     15 O15          2.5320    -1.1190    -2.4040 o          1 035      -0.960833
     16 P16          4.5670    -2.2600     8.1220 p5         1 035       1.324900
     17 O17          4.4960    -0.8490     8.6570 o          1 035      -0.954833
     18 O18          5.9260    -2.6660     7.6010 o          1 035      -0.954833
     19 O19          3.9080    -3.2940     9.0090 o          1 035      -0.954833
     20 H2           1.5390    -0.6170    -0.3860 h1         1 035       0.035700
     21 H3           3.7720     0.1150     0.7320 hc         1 035       0.019700
     22 H3A          2.8470     1.4550     1.5190 hc         1 035       0.019700
     23 H4           2.3350    -1.5780     1.8650 hc         1 035       0.029700
     24 H4A          1.3390    -0.2620     2.5960 hc         1 035       0.029700
     25 H5           3.3580     0.5800     3.8340 hc         1 035       0.012700
     26 H5A          4.3720    -0.7020     3.0760 hc         1 035       0.012700
     27 H6           2.9530    -2.4700     4.1700 hc         1 035       0.016700
     28 H6A          1.9400    -1.1890     4.9270 hc         1 035       0.016700
     29 H7           3.9550    -0.3230     6.1850 h1         1 035      -0.009300
     30 H7A          4.9820    -1.6140     5.4150 h1         1 035      -0.009300
@<TRIPOS>BOND
     1     1     2 1   
     2     1     8 1   
     3     1     9 1   
     4     2     3 1   
     5     2    10 1   
     6     2    20 1   
     7     3     4 1   
     8     3    21 1   
     9     3    22 1   
    10     4     5 1   
    11     4    23 1   
    12     4    24 1   
    13     5     6 1   
    14     5    25 1   
    15     5    26 1   
    16     6     7 1   
    17     6    27 1   
    18     6    28 1   
    19     7    11 1   
    20     7    29 1   
    21     7    30 1   
    22    10    12 1   
    23    11    16 1   
    24    12    13 1   
    25    12    14 1   
    26    12    15 1   
    27    16    17 1   
    28    16    18 1   
    29    16    19 1   
@<TRIPOS>SUBSTRUCTURE
     1 035         1 TEMP              0 ****  ****    0 ROOT
