@<TRIPOS>MOLECULE
035
   30    29     1     0     0
SMALL
bcc


@<TRIPOS>ATOM
      1 C1           0.0000     0.0000     0.0000 c          1 035       0.985600
      2 C2           1.5070     0.0000     0.0000 c3         1 035       0.167100
      3 C3           2.0170     0.0000     1.4430 c3         1 035      -0.036400
      4 C4           3.5410    -0.1260     1.4450 c3         1 035      -0.049400
      5 C5           4.0510    -0.1260     2.8890 c3         1 035      -0.033400
      6 C6           5.5760    -0.2520     2.8910 c3         1 035      -0.058400
      7 C7           6.0850    -0.2520     4.3330 c3         1 035       0.284400
      8 O8          -0.6720    -1.0540     0.4900 o          1 035      -0.969300
      9 O9          -0.6050     0.9500    -0.4380 o          1 035      -0.969300
     10 O10          1.9830     1.1670    -0.6730 os         1 035      -0.452200
     11 O11          7.5090    -0.3690     4.3360 os         1 035      -0.479200
     12 P12          2.9130     1.1040    -1.9860 p5         1 035       0.694900
     13 O13          4.1130     0.2850    -1.7020 o          1 035      -0.789167
     14 O14          2.0850     0.4420    -3.1970 o          1 035      -0.789167
     15 O15          3.3650     2.5940    -2.3950 o          1 035      -0.789167
     16 P16          8.3840    -0.4030     5.6860 p5         1 035       0.701900
     17 O17          8.0270    -1.7300     6.5250 o          1 035      -0.787833
     18 O18          9.9500    -0.4100     5.3120 o          1 035      -0.787833
     19 O19          8.0780     0.7930     6.5020 o          1 035      -0.787833
     20 H2           1.8680    -0.8840    -0.5110 h1         1 035       0.001700
     21 H3           1.7300     0.9260     1.9270 hc         1 035      -0.017800
     22 H3A          1.5840    -0.8370     1.9780 hc         1 035      -0.017800
     23 H4           3.9740     0.7110     0.9100 hc         1 035       0.045700
     24 H4A          3.8280    -1.0510     0.9610 hc         1 035       0.045700
     25 H5           3.6180    -0.9620     3.4240 hc         1 035      -0.020300
     26 H5A          3.7640     0.8000     3.3730 hc         1 035      -0.020300
     27 H6           5.8620    -1.1780     2.4070 hc         1 035       0.010200
     28 H6A          6.0080     0.5840     2.3550 hc         1 035       0.010200
     29 H7           5.7970     0.6730     4.8170 h1         1 035      -0.046300
     30 H7A          5.6530    -1.0890     4.8680 h1         1 035      -0.046300
@<TRIPOS>BOND
     1     1     2 1   
     2     1     8 1   
     3     1     9 1   
     4     2     3 1   
     5     2    10 1   
     6     2    20 1   
     7     3     4 1   
     8     3    21 1   
     9     3    22 1   
    10     4     5 1   
    11     4    23 1   
    12     4    24 1   
    13     5     6 1   
    14     5    25 1   
    15     5    26 1   
    16     6     7 1   
    17     6    27 1   
    18     6    28 1   
    19     7    11 1   
    20     7    29 1   
    21     7    30 1   
    22    10    12 1   
    23    11    16 1   
    24    12    13 1   
    25    12    14 1   
    26    12    15 1   
    27    16    17 1   
    28    16    18 1   
    29    16    19 1   
@<TRIPOS>SUBSTRUCTURE
     1 035         1 TEMP              0 ****  ****    0 ROOT
