@<TRIPOS>MOLECULE
molecule
   30    29     1     0     0
SMALL
bcc


@<TRIPOS>ATOM
      1 C1           0.0000     0.0000     0.0000 c          1 035       0.896600
      2 C2           1.5070     0.0000     0.0000 c3         1 035       0.141100
      3 C3           2.0170     0.0000     1.4430 c3         1 035      -0.075400
      4 C4           3.5410    -0.1260     1.4450 c3         1 035      -0.079400
      5 C5           4.0510    -0.1260     2.8890 c3         1 035      -0.085400
      6 C6           5.5760    -0.2520     2.8910 c3         1 035      -0.088400
      7 C7           6.0850    -0.2520     4.3330 c3         1 035       0.218400
      8 O8          -0.6720    -1.0540     0.4900 o          1 035      -0.908800
      9 O9          -0.6050     0.9500    -0.4380 o          1 035      -0.908800
     10 O10          1.9830     1.1670    -0.6730 os         1 035      -0.579200
     11 O11          7.5090    -0.3690     4.3360 os         1 035      -0.597200
     12 P12          2.9130     1.1040    -1.9860 p5         1 035       1.239900
     13 O13          4.1130     0.2850    -1.7020 o          1 035      -0.946833
     14 O14          2.0850     0.4420    -3.1970 o          1 035      -0.946833
     15 O15          3.3650     2.5940    -2.3950 o          1 035      -0.946833
     16 P16          8.3840    -0.4030     5.6860 p5         1 035       1.234900
     17 O17          8.0270    -1.7300     6.5250 o          1 035      -0.943500
     18 O18          9.9500    -0.4100     5.3120 o          1 035      -0.943500
     19 O19          8.0780     0.7930     6.5020 o          1 035      -0.943500
     20 H2           1.8680    -0.8840    -0.5110 h1         1 035       0.029700
     21 H3           1.5840    -0.8370     1.9780 hc         1 035       0.009200
     22 H3A          1.7300     0.9260     1.9270 hc         1 035       0.009200
     23 H4           3.9740     0.7110     0.9100 hc         1 035       0.067700
     24 H4A          3.8280    -1.0510     0.9610 hc         1 035       0.067700
     25 H5           3.7640     0.8000     3.3730 hc         1 035       0.004700
     26 H5A          3.6180    -0.9620     3.4240 hc         1 035       0.004700
     27 H6           5.8620    -1.1780     2.4070 hc         1 035       0.041200
     28 H6A          6.0080     0.5840     2.3550 hc         1 035       0.041200
     29 H7           5.7970     0.6730     4.8170 h1         1 035      -0.005800
     30 H7A          5.6530    -1.0890     4.8680 h1         1 035      -0.005800
@<TRIPOS>BOND
     1     1     2 1   
     2     1     8 1   
     3     1     9 1   
     4     2     3 1   
     5     2    10 1   
     6     3     4 1   
     7     4     5 1   
     8     5     6 1   
     9     6     7 1   
    10     7    11 1   
    11    10    12 1   
    12    11    16 1   
    13    12    13 1   
    14    12    14 1   
    15    12    15 1   
    16    16    17 1   
    17    16    18 1   
    18    16    19 1   
    19     2    20 1   
    20     3    21 1   
    21     3    22 1   
    22     4    23 1   
    23     4    24 1   
    24     5    25 1   
    25     5    26 1   
    26     6    27 1   
    27     6    28 1   
    28     7    29 1   
    29     7    30 1   
@<TRIPOS>SUBSTRUCTURE
     1 035         1 TEMP              0 ****  ****    0 ROOT
