@<TRIPOS>MOLECULE
036
   30    29     1     0     0
SMALL
bcc


@<TRIPOS>ATOM
      1 C1           0.2360    -0.1250     0.6210 c          1 036       0.898600
      2 C2           1.6490    -0.4510     0.0620 c3         1 036       0.145100
      3 C3           2.6920     0.0870     1.0800 c3         1 036      -0.091400
      4 C4           2.7480     1.6020     1.1840 c3         1 036      -0.073400
      5 C5           3.7200     2.0910     2.2510 c3         1 036      -0.072400
      6 C6           3.8090     3.6050     2.3470 c3         1 036      -0.088400
      7 C7           4.7860     4.1040     3.4220 c3         1 036       0.201400
      8 O8          -0.5220     0.6630    -0.0430 o          1 036      -0.920800
      9 O9          -0.1680    -0.5660     1.7450 o          1 036      -0.920800
     10 O10          1.8370    -1.8120    -0.1200 os         1 036      -0.584200
     11 O11          4.8200     5.4880     3.4500 os         1 036      -0.586200
     12 P12          2.3620    -2.4540    -1.6150 p5         1 036       1.336900
     13 O13          1.2100    -3.2950    -2.1280 o          1 036      -0.960833
     14 O14          2.7220    -1.2940    -2.5140 o          1 036      -0.960833
     15 O15          3.5510    -3.3050    -1.2110 o          1 036      -0.960833
     16 P16          5.8810     6.1370     4.6300 p5         1 036       1.324900
     17 O17          7.2490     5.6230     4.2450 o          1 036      -0.954833
     18 O18          5.3630     5.6120     5.9490 o          1 036      -0.954833
     19 O19          5.7020     7.6280     4.4420 o          1 036      -0.954833
     20 H2           1.7850     0.0840    -0.9220 h1         1 036       0.036700
     21 H3           2.4340    -0.3430     2.0820 hc         1 036       0.019700
     22 H3A          3.7040    -0.2990     0.7940 hc         1 036       0.019700
     23 H4           1.7180     1.9840     1.4100 hc         1 036       0.029700
     24 H4A          3.0490     2.0300     0.1920 hc         1 036       0.029700
     25 H5           4.7410     1.6770     2.0340 hc         1 036       0.012700
     26 H5A          3.4070     1.6790     3.2460 hc         1 036       0.012700
     27 H6           2.7940     4.0240     2.5670 hc         1 036       0.016700
     28 H6A          4.1260     4.0220     1.3570 hc         1 036       0.016700
     29 H7           5.8210     3.7090     3.2100 h1         1 036      -0.009300
     30 H7A          4.4720     3.7170     4.4330 h1         1 036      -0.009300
@<TRIPOS>BOND
     1     1     2 1   
     2     1     8 1   
     3     1     9 1   
     4     2     3 1   
     5     2    10 1   
     6     2    20 1   
     7     3     4 1   
     8     3    21 1   
     9     3    22 1   
    10     4     5 1   
    11     4    23 1   
    12     4    24 1   
    13     5     6 1   
    14     5    25 1   
    15     5    26 1   
    16     6     7 1   
    17     6    27 1   
    18     6    28 1   
    19     7    11 1   
    20     7    29 1   
    21     7    30 1   
    22    10    12 1   
    23    11    16 1   
    24    12    13 1   
    25    12    14 1   
    26    12    15 1   
    27    16    17 1   
    28    16    18 1   
    29    16    19 1   
@<TRIPOS>SUBSTRUCTURE
     1 036         1 TEMP              0 ****  ****    0 ROOT
