@<TRIPOS>MOLECULE
036
   30    29     1     0     0
SMALL
bcc


@<TRIPOS>ATOM
      1 C1           0.0000     0.0000     0.0000 c          1 036       0.985600
      2 C2           1.5060     0.0000     0.0000 c3         1 036       0.167100
      3 C3           2.0170     0.0000     1.4420 c3         1 036      -0.035400
      4 C4           3.5410     0.1260     1.4440 c3         1 036      -0.049400
      5 C5           4.0510     0.1260     2.8870 c3         1 036      -0.032400
      6 C6           5.5760     0.2520     2.8890 c3         1 036      -0.058400
      7 C7           6.0860     0.2520     4.3310 c3         1 036       0.284400
      8 O8          -0.6040    -0.9480    -0.4420 o          1 036      -0.968800
      9 O9          -0.6720     1.0510     0.4960 o          1 036      -0.968800
     10 O10          1.9840    -1.1670    -0.6740 os         1 036      -0.452200
     11 O11          7.5100     0.3700     4.3330 os         1 036      -0.479200
     12 P12          2.9120    -1.1040    -1.9870 p5         1 036       0.694900
     13 O13          2.0830    -0.4410    -3.1990 o          1 036      -0.788833
     14 O14          4.1120    -0.2840    -1.7040 o          1 036      -0.788833
     15 O15          3.3640    -2.5930    -2.3970 o          1 036      -0.788833
     16 P16          8.3860     0.4030     5.6840 p5         1 036       0.700900
     17 O17          8.2550    -1.0110     6.4430 o          1 036      -0.787833
     18 O18          9.9300     0.6740     5.3160 o          1 036      -0.787833
     19 O19          7.8910     1.4840     6.5660 o          1 036      -0.787833
     20 H2           1.8670     0.8850    -0.5110 h1         1 036       0.001700
     21 H3           1.5850     0.8370     1.9780 hc         1 036      -0.017800
     22 H3A          1.7310    -0.9260     1.9270 hc         1 036      -0.017800
     23 H4           3.8270     1.0510     0.9600 hc         1 036       0.045200
     24 H4A          3.9730    -0.7110     0.9080 hc         1 036       0.045200
     25 H5           3.7650    -0.7990     3.3720 hc         1 036      -0.020300
     26 H5A          3.6190     0.9630     3.4230 hc         1 036      -0.020300
     27 H6           6.0080    -0.5850     2.3530 hc         1 036       0.010200
     28 H6A          5.8630     1.1770     2.4040 hc         1 036       0.010200
     29 H7           5.8000    -0.6740     4.8160 h1         1 036      -0.045800
     30 H7A          5.6540     1.0880     4.8670 h1         1 036      -0.045800
@<TRIPOS>BOND
     1     1     2 1   
     2     1     8 1   
     3     1     9 1   
     4     2     3 1   
     5     2    10 1   
     6     2    20 1   
     7     3     4 1   
     8     3    21 1   
     9     3    22 1   
    10     4     5 1   
    11     4    23 1   
    12     4    24 1   
    13     5     6 1   
    14     5    25 1   
    15     5    26 1   
    16     6     7 1   
    17     6    27 1   
    18     6    28 1   
    19     7    11 1   
    20     7    29 1   
    21     7    30 1   
    22    10    12 1   
    23    11    16 1   
    24    12    13 1   
    25    12    14 1   
    26    12    15 1   
    27    16    17 1   
    28    16    18 1   
    29    16    19 1   
@<TRIPOS>SUBSTRUCTURE
     1 036         1 TEMP              0 ****  ****    0 ROOT
