@<TRIPOS>MOLECULE
03A
   31    31     1     0     0
SMALL
bcc


@<TRIPOS>ATOM
      1 NAA          0.3300     0.4080     0.8580 ny         1 03A      -0.620800
      2 NAE          1.4490    -2.1550    -3.3660 nz         1 03A      -0.836600
      3 CAH          1.4250    -2.1970    -1.8660 c3         1 03A       0.038500
      4 CAI          1.0190    -0.8500    -1.2780 c          1 03A       0.488100
      5 CAJ          2.7910    -2.6160    -1.2910 c3         1 03A      -0.113400
      6 CAK          3.2120    -3.9970    -1.7580 c3         1 03A      -0.092400
      7 CAL          4.3720    -4.4990    -0.9320 c3         1 03A      -0.105100
      8 CAM          0.5910    -0.9030     0.1860 c          1 03A       0.441100
      9 CAN         -1.0660     0.5070     1.3470 cx         1 03A      -0.031500
     10 CAO         -1.5890     1.8340     1.8690 cx         1 03A      -0.085900
     11 CAP         -2.1130     1.2890     0.5780 cx         1 03A      -0.085900
     12 OBS          0.4480    -1.9370     0.8180 o          1 03A      -0.337100
     13 OBR          1.0260     0.2060    -1.8990 o          1 03A      -0.413100
     14 HNAA         0.5290     1.1840     0.2080 hn         1 03A       0.483800
     15 HAH          0.6510    -2.9750    -1.5630 hx         1 03A       0.161700
     16 HAJ          2.6850    -2.6290    -0.1710 hc         1 03A       0.097200
     17 HAJA         3.5790    -1.8630    -1.5570 hc         1 03A       0.097200
     18 HAK          2.3530    -4.7140    -1.6650 hc         1 03A       0.053700
     19 HAKA         3.5260    -3.9670    -2.8360 hc         1 03A       0.053700
     20 HAL          4.6970    -5.5010    -1.3110 hc         1 03A       0.069033
     21 HALA         4.0810    -4.6090     0.1410 hc         1 03A       0.069033
     22 HALB         5.2420    -3.8010    -0.9990 hc         1 03A       0.069033
     23 HAN         -1.3510    -0.4350     1.8760 hx         1 03A       0.163700
     24 HAO         -2.2170     1.8000     2.7850 hc         1 03A       0.124700
     25 HAOA        -0.9480     2.7360     1.8540 hc         1 03A       0.124700
     26 HAP         -1.8480     1.8040    -0.3650 hc         1 03A       0.124700
     27 HAPA        -3.1350     0.8590     0.5330 hc         1 03A       0.124700
     28 HNAE         2.0790    -1.4090    -3.6940 hn         1 03A       0.484467
     29 HAE2         1.7980    -3.0620    -3.7150 hn         1 03A       0.484467
     30 HAA2         0.9540     0.4910     1.6800 hn         1 03A       0.483800
     31 H2           0.5100    -1.9850    -3.7430 hn         1 03A       0.484467
@<TRIPOS>BOND
     1     1     8 1   
     2     1     9 1   
     3     1    14 1   
     4     1    30 1   
     5     2     3 1   
     6     2    28 1   
     7     2    29 1   
     8     2    31 1   
     9     3     4 1   
    10     3     5 1   
    11     3    15 1   
    12     4     8 1   
    13     4    13 2   
    14     5     6 1   
    15     5    16 1   
    16     5    17 1   
    17     6     7 1   
    18     6    18 1   
    19     6    19 1   
    20     7    20 1   
    21     7    21 1   
    22     7    22 1   
    23     8    12 2   
    24     9    10 1   
    25     9    11 1   
    26     9    23 1   
    27    10    11 1   
    28    10    24 1   
    29    10    25 1   
    30    11    26 1   
    31    11    27 1   
@<TRIPOS>SUBSTRUCTURE
     1 03A         1 TEMP              0 ****  ****    0 ROOT
