@<TRIPOS>MOLECULE
molecule
   30    30     1     0     0
SMALL
bcc


@<TRIPOS>ATOM
      1 NAA          0.0000     0.0000     0.0000 ns         1 03A      -0.496900
      2 NAE          4.0910    -0.3460    -2.6290 nz         1 03A      -0.811600
      3 CAH          3.6010     0.0070    -1.2900 c3         1 03A       0.015500
      4 CAI          2.0940     0.0060    -1.2900 c          1 03A       0.489100
      5 CAJ          4.1100     1.3980    -0.9100 c3         1 03A      -0.103400
      6 CAK          5.6350     1.3680    -0.7880 c3         1 03A      -0.094400
      7 CAL          6.1440     2.7590    -0.4080 c3         1 03A      -0.089100
      8 CAM          1.3480     0.0000     0.0000 c          1 03A       0.578100
      9 CAN         -0.7330     0.0000     1.2680 cx         1 03A       0.019700
     10 CAO         -2.1520     0.5710     1.2640 cx         1 03A      -0.132400
     11 CAP         -1.9350    -0.9390     1.3890 cx         1 03A      -0.132400
     12 OBS          1.9540    -0.0050     1.0520 o          1 03A      -0.568100
     13 HNAA        -0.5000     0.0460    -0.8660 hn         1 03A       0.339500
     14 HAH          3.9620    -0.7180    -0.5710 hx         1 03A       0.148700
     15 OBR          1.4900     0.0100    -2.3370 o          1 03A      -0.489100
     16 HAJ          3.6770     1.6950     0.0380 hc         1 03A       0.097200
     17 HAJA         3.8230     2.1090    -1.6750 hc         1 03A       0.097200
     18 HAK          6.0670     1.0720    -1.7360 hc         1 03A       0.041700
     19 HAKA         5.9220     0.6570    -0.0220 hc         1 03A       0.041700
     20 HAL          5.8970     3.4610    -1.1950 hc         1 03A       0.056367
     21 HALA         7.2190     2.7270    -0.2760 hc         1 03A       0.056367
     22 HALB         5.6760     3.0750     0.5170 hc         1 03A       0.056367
     23 HAN         -0.1850     0.1560     2.1900 h1         1 03A       0.133700
     24 HAO         -2.5160     0.9130     0.3020 hc         1 03A       0.089700
     25 HAOA        -2.4550     1.0760     2.1730 hc         1 03A       0.089700
     26 HAP         -2.1060    -1.3550     2.3750 hc         1 03A       0.089700
     27 HAPA        -2.1660    -1.5190     0.5040 hc         1 03A       0.089700
     28 HNAE         3.3240    -0.6500    -3.1960 hn         1 03A       0.463133
     29 HAE2         4.7630    -1.0840    -2.5550 hn         1 03A       0.463133
     30 H2           4.5200     0.4540    -3.0500 hn         1 03A       0.463133
@<TRIPOS>BOND
     1     1     8 1   
     2     3     2 1   
     3     3     4 1   
     4     3     5 1   
     5     6     5 1   
     6     6     7 1   
     7     8     4 1   
     8     8    12 2   
     9     9     1 1   
    10    10     9 1   
    11    11     9 1   
    12    11    10 1   
    13     1    13 1   
    14     2    28 1   
    15     2    30 1   
    16     3    14 1   
    17     4    15 2   
    18     5    16 1   
    19     5    17 1   
    20     6    18 1   
    21     6    19 1   
    22     7    20 1   
    23     7    21 1   
    24     7    22 1   
    25     9    23 1   
    26    10    24 1   
    27    10    25 1   
    28    11    26 1   
    29    11    27 1   
    30    29     2 1   
@<TRIPOS>SUBSTRUCTURE
     1 03A         1 TEMP              0 ****  ****    0 ROOT
