@<TRIPOS>MOLECULE
03A
   30    30     1     0     0
SMALL
bcc


@<TRIPOS>ATOM
      1 NAA          0.0000     0.0000     0.0000 ns         1 03A      -0.044900
      2 NAE          4.0910    -0.3460    -2.6290 nz         1 03A       0.054400
      3 CAH          3.6010     0.0070    -1.2900 c3         1 03A      -0.165500
      4 CAI          2.0940     0.0060    -1.2900 c          1 03A       0.546100
      5 CAJ          4.1100     1.3980    -0.9100 c3         1 03A      -0.035400
      6 CAK          5.6350     1.3680    -0.7880 c3         1 03A      -0.033400
      7 CAL          6.1440     2.7590    -0.4080 c3         1 03A       0.014900
      8 CAM          1.3480     0.0000     0.0000 c          1 03A       0.472100
      9 CAN         -0.7330     0.0000     1.2680 cx         1 03A      -0.101300
     10 CAO         -2.1520     0.5710     1.2640 cx         1 03A      -0.062900
     11 CAP         -1.9350    -0.9390     1.3890 cx         1 03A      -0.062900
     12 OBS          1.9540    -0.0050     1.0520 o          1 03A      -0.613100
     13 HNAA        -0.5000     0.0460    -0.8660 hn         1 03A       0.183500
     14 HAH          3.9620    -0.7180    -0.5710 hx         1 03A       0.122700
     15 OBR          1.4900     0.0100    -2.3370 o          1 03A      -0.521100
     16 HAJ          3.6770     1.6950     0.0380 hc         1 03A       0.062700
     17 HAJA         3.8230     2.1090    -1.6750 hc         1 03A       0.062700
     18 HAK          6.0670     1.0720    -1.7360 hc         1 03A       0.010700
     19 HAKA         5.9220     0.6570    -0.0220 hc         1 03A       0.010700
     20 HAL          5.8970     3.4610    -1.1950 hc         1 03A       0.019367
     21 HALA         7.2190     2.7270    -0.2760 hc         1 03A       0.019367
     22 HALB         5.6760     3.0750     0.5170 hc         1 03A       0.019367
     23 HAN         -0.1850     0.1560     2.1900 h1         1 03A       0.108700
     24 HAO         -2.5160     0.9130     0.3020 hc         1 03A       0.056450
     25 HAOA        -2.4550     1.0760     2.1730 hc         1 03A       0.056450
     26 HAP         -2.1060    -1.3550     2.3750 hc         1 03A       0.056450
     27 HAPA        -2.1660    -1.5190     0.5040 hc         1 03A       0.056450
     28 HNAE         3.3240    -0.6500    -3.1960 hn         1 03A       0.235467
     29 HAE2         4.7630    -1.0840    -2.5550 hn         1 03A       0.235467
     30 H2           4.5200     0.4540    -3.0500 hn         1 03A       0.235467
@<TRIPOS>BOND
     1     1     8 1   
     2     1     9 1   
     3     1    13 1   
     4     2     3 1   
     5     2    28 1   
     6     2    29 1   
     7     2    30 1   
     8     3     4 1   
     9     3     5 1   
    10     3    14 1   
    11     4     8 1   
    12     4    15 2   
    13     5     6 1   
    14     5    16 1   
    15     5    17 1   
    16     6     7 1   
    17     6    18 1   
    18     6    19 1   
    19     7    20 1   
    20     7    21 1   
    21     7    22 1   
    22     8    12 2   
    23     9    10 1   
    24     9    11 1   
    25     9    23 1   
    26    10    11 1   
    27    10    24 1   
    28    10    25 1   
    29    11    26 1   
    30    11    27 1   
@<TRIPOS>SUBSTRUCTURE
     1 03A         1 TEMP              0 ****  ****    0 ROOT
