@<TRIPOS>MOLECULE
03C
   57    60     1     0     0
SMALL
bcc


@<TRIPOS>ATOM
      1 N1           0.0000     0.0000     0.0000 na         1 03C       0.579300
      2 C2          -0.8180    -0.0010    -1.1380 ca         1 03C      -0.156200
      3 C3           1.3520     0.0000     0.0000 cc         1 03C      -0.041700
      4 N4          -0.4450     0.0070     1.3260 nc         1 03C      -0.675800
      5 C5          -1.8670    -0.9060    -1.2410 ca         1 03C      -0.052300
      6 C6          -0.5860     0.9070    -2.1620 ca         1 03C      -0.104000
      7 C7           1.7600     0.0000     1.3350 cd         1 03C      -0.504900
      8 N8           2.1710    -0.0030    -1.1080 nv         1 03C      -0.399200
      9 C9           0.5850     0.0040     2.1250 cd         1 03C       0.448200
     10 C10         -2.6710    -0.9030    -2.3630 ca         1 03C      -0.095000
     11 C11         -2.1250    -1.8900    -0.1290 c3         1 03C       0.046200
     12 C12         -1.3940     0.9060    -3.2820 ca         1 03C      -0.099000
     13 C13          3.1420     0.0010     1.8250 c          1 03C       0.713300
     14 C14         -2.4340    -0.0010    -3.3840 ca         1 03C      -0.083000
     15 C15          3.4120     0.1360     3.2730 ca         1 03C      -0.157600
     16 O16          4.0650    -0.1120     1.0400 o          1 03C      -0.617100
     17 C17          4.5690    -0.4160     3.8240 ca         1 03C      -0.041000
     18 C18          2.5160     0.8230     4.0920 ca         1 03C      -0.091000
     19 C19          4.8170    -0.2850     5.1750 ca         1 03C      -0.101300
     20 C20          2.7740     0.9470     5.4420 ca         1 03C      -0.110000
     21 C21          6.0650    -0.8800     5.7720 c3         1 03C       0.012600
     22 C22          3.9200     0.3930     5.9830 ca         1 03C      -0.083000
     23 C23          6.9060     0.2290     6.4080 c3         1 03C      -0.047400
     24 C24          5.6810    -1.9060     6.8410 c3         1 03C      -0.047400
     25 C25          8.1910    -0.3740     6.9830 c3         1 03C       0.240800
     26 C26          6.9520    -2.5350     7.4210 c3         1 03C       0.240800
     27 N27          7.8310    -1.4620     7.9040 n3         1 03C      -0.546500
     28 S28          8.4080    -1.4780     9.4560 s6         1 03C       0.966900
     29 O29          8.4070    -2.8520     9.8170 o          1 03C      -0.585300
     30 O30          9.6190    -0.7390     9.3880 o          1 03C      -0.585300
     31 C31          7.1600    -0.5690    10.4110 c3         1 03C       0.008700
     32 H6           0.2280     1.6180    -2.0820 ha         1 03C       0.114000
     33 HN8          3.1430     0.2160    -1.0110 hn         1 03C       0.288300
     34 HN8A         1.8120    -0.2950    -1.9950 hn         1 03C       0.288300
     35 H9           0.5480     0.0070     3.2080 h4         1 03C       0.018100
     36 H10         -3.4870    -1.6110    -2.4440 ha         1 03C       0.113000
     37 H11         -2.9020    -2.5810    -0.4320 hc         1 03C       0.021033
     38 H11A        -1.2160    -2.4390     0.0850 hc         1 03C       0.021033
     39 H11B        -2.4420    -1.3560     0.7590 hc         1 03C       0.021033
     40 H12         -1.2120     1.6130    -4.0820 ha         1 03C       0.108000
     41 H14         -3.0660    -0.0010    -4.2630 ha         1 03C       0.106000
     42 H17          5.2910    -0.9110     3.1860 ha         1 03C       0.123000
     43 H18          1.6180     1.2580     3.6700 ha         1 03C       0.125000
     44 H20          2.0780     1.4780     6.0790 ha         1 03C       0.105000
     45 H21          6.6440    -1.3690     4.9980 hc         1 03C       0.037700
     46 H22          4.1190     0.4930     7.0430 ha         1 03C       0.105000
     47 H23          7.1600     0.9650     5.6550 hc         1 03C       0.021450
     48 H23A         6.3410     0.6980     7.2040 hc         1 03C       0.021450
     49 H24          5.0690    -2.6800     6.3930 hc         1 03C       0.021450
     50 H24A         5.1290    -1.4130     7.6320 hc         1 03C       0.021450
     51 H25          8.7410     0.3890     7.5200 h1         1 03C       0.026700
     52 H25A         8.7980    -0.7680     6.1770 h1         1 03C       0.026700
     53 H26          6.6890    -3.1870     8.2460 h1         1 03C       0.026700
     54 H26A         7.4610    -3.1010     6.6510 h1         1 03C       0.026700
     55 H31          6.2050    -1.0730    10.3300 h1         1 03C       0.060033
     56 H31A         7.0710     0.4380    10.0220 h1         1 03C       0.060033
     57 H31B         7.4600    -0.5290    11.4510 h1         1 03C       0.060033
@<TRIPOS>BOND
     1     1     2 1   
     2     1     3 1   
     3     1     4 1   
     4     2     5 ar  
     5     2     6 ar  
     6     3     7 2   
     7     3     8 1   
     8     4     9 2   
     9     5    10 ar  
    10     5    11 1   
    11     6    12 ar  
    12     6    32 1   
    13     7     9 1   
    14     7    13 1   
    15     8    33 1   
    16     8    34 1   
    17     9    35 1   
    18    10    14 ar  
    19    10    36 1   
    20    11    37 1   
    21    11    38 1   
    22    11    39 1   
    23    12    14 ar  
    24    12    40 1   
    25    13    15 1   
    26    13    16 2   
    27    14    41 1   
    28    15    17 ar  
    29    15    18 ar  
    30    17    19 ar  
    31    17    42 1   
    32    18    20 ar  
    33    18    43 1   
    34    19    21 1   
    35    19    22 ar  
    36    20    22 ar  
    37    20    44 1   
    38    21    23 1   
    39    21    24 1   
    40    21    45 1   
    41    22    46 1   
    42    23    25 1   
    43    23    47 1   
    44    23    48 1   
    45    24    26 1   
    46    24    49 1   
    47    24    50 1   
    48    25    27 1   
    49    25    51 1   
    50    25    52 1   
    51    26    27 1   
    52    26    53 1   
    53    26    54 1   
    54    27    28 1   
    55    28    29 2   
    56    28    30 2   
    57    28    31 1   
    58    31    55 1   
    59    31    56 1   
    60    31    57 1   
@<TRIPOS>SUBSTRUCTURE
     1 03C         1 TEMP              0 ****  ****    0 ROOT
