@<TRIPOS>MOLECULE
03C
   57    60     1     0     0
SMALL
bcc


@<TRIPOS>ATOM
      1 N1           0.0230    -0.1960     0.2420 na         1 03C       0.108300
      2 C2          -0.9320    -0.2200    -0.8160 ca         1 03C       0.001800
      3 C3           1.3540     0.2810     0.1090 cc         1 03C       0.231300
      4 N4          -0.2640    -0.4980     1.5360 nc         1 03C      -0.508800
      5 C5          -1.6770    -1.3890    -1.0950 ca         1 03C      -0.046300
      6 C6          -1.1280     0.9410    -1.5920 ca         1 03C      -0.138000
      7 C7           1.9210     0.2350     1.4260 cd         1 03C      -0.433900
      8 N8           1.9390     0.7440    -1.0390 nv         1 03C      -0.824200
      9 C9           0.8450    -0.2610     2.2600 cd         1 03C       0.367200
     10 C10         -2.5890    -1.3630    -2.1580 ca         1 03C      -0.129000
     11 C11         -1.5300    -2.6300    -0.2990 c3         1 03C      -0.057800
     12 C12         -2.0360     0.9320    -2.6450 ca         1 03C      -0.129000
     13 C13          3.2800     0.5640     1.7610 c          1 03C       0.637300
     14 C14         -2.7680    -0.2200    -2.9300 ca         1 03C      -0.119000
     15 C15          3.6460     0.5990     3.1990 ca         1 03C      -0.145600
     16 O16          4.1350     0.7970     0.8840 o          1 03C      -0.592100
     17 C17          2.8020     1.1940     4.1400 ca         1 03C      -0.097000
     18 C18          4.8690     0.0530     3.6060 ca         1 03C      -0.084000
     19 C19          3.1630     1.2350     5.4920 ca         1 03C      -0.091300
     20 C20          5.2280     0.0850     4.9520 ca         1 03C      -0.138000
     21 C21          2.2630     1.8660     6.5050 c3         1 03C      -0.016400
     22 C22          4.3810     0.6710     5.8910 ca         1 03C      -0.108000
     23 C23          2.0380     3.3430     6.2000 c3         1 03C      -0.091900
     24 C24          0.9280     1.1330     6.5850 c3         1 03C      -0.091900
     25 C25          1.0670     3.9620     7.2070 c3         1 03C       0.221300
     26 C26         -0.0100     1.8210     7.5790 c3         1 03C       0.221300
     27 N27         -0.1700     3.2340     7.3420 n3         1 03C      -0.818500
     28 S28         -1.6240     3.9290     7.1450 s6         1 03C       1.459900
     29 O29         -2.6140     3.1920     7.8300 o          1 03C      -0.651800
     30 O30         -1.5470     5.3100     7.4270 o          1 03C      -0.651800
     31 C31         -1.9230     3.7620     5.4750 c3         1 03C      -0.364300
     32 H6          -0.5750     1.8670    -1.3630 ha         1 03C       0.151000
     33 HN8          2.9340     0.8290    -0.9930 hn         1 03C       0.442800
     34 HN8A         1.5390     0.4850    -1.9110 hn         1 03C       0.442800
     35 H9           0.8870    -0.4470     3.3360 h4         1 03C       0.049100
     36 H10         -3.1740    -2.2690    -2.3820 ha         1 03C       0.140000
     37 H11         -2.0450    -3.4880    -0.7980 hc         1 03C       0.055033
     38 H11A        -1.9840    -2.4910     0.7160 hc         1 03C       0.055033
     39 H11B        -0.4530    -2.8980    -0.1670 hc         1 03C       0.055033
     40 H12         -2.1790     1.8420    -3.2470 ha         1 03C       0.140000
     41 H14         -3.4900    -0.2230    -3.7610 ha         1 03C       0.139000
     42 H17          1.8510     1.6440     3.8110 ha         1 03C       0.141000
     43 H18          5.5410    -0.3910     2.8550 ha         1 03C       0.149000
     44 H20          6.1860    -0.3490     5.2740 ha         1 03C       0.137000
     45 H21          2.7530     1.7970     7.5200 hc         1 03C       0.056700
     46 H22          4.6740     0.6940     6.9520 ha         1 03C       0.134000
     47 H23          1.6410     3.4590     5.1590 hc         1 03C       0.053450
     48 H23A         3.0100     3.8960     6.2590 hc         1 03C       0.053450
     49 H24          0.4560     1.0940     5.5690 hc         1 03C       0.053450
     50 H24A         1.0930     0.0790     6.9260 hc         1 03C       0.053450
     51 H25          1.5740     4.0020     8.2150 h1         1 03C       0.058950
     52 H25A         0.8340     5.0220     6.8980 h1         1 03C       0.058950
     53 H26          0.4030     1.6730     8.6200 h1         1 03C       0.058950
     54 H26A        -1.0240     1.3270     7.5380 h1         1 03C       0.058950
     55 H31         -2.9180     4.2050     5.2150 h1         1 03C       0.112700
     56 H31A        -1.1720     4.2850     4.8350 h1         1 03C       0.112700
     57 H31B        -1.9560     2.7000     5.1330 h1         1 03C       0.112700
@<TRIPOS>BOND
     1     1     2 1   
     2     1     3 1   
     3     1     4 1   
     4     2     5 ar  
     5     2     6 ar  
     6     3     7 2   
     7     3     8 1   
     8     4     9 2   
     9     5    10 ar  
    10     5    11 1   
    11     6    12 ar  
    12     6    32 1   
    13     7     9 1   
    14     7    13 1   
    15     8    33 1   
    16     8    34 1   
    17     9    35 1   
    18    10    14 ar  
    19    10    36 1   
    20    11    37 1   
    21    11    38 1   
    22    11    39 1   
    23    12    14 ar  
    24    12    40 1   
    25    13    15 1   
    26    13    16 2   
    27    14    41 1   
    28    15    17 ar  
    29    15    18 ar  
    30    17    19 ar  
    31    17    42 1   
    32    18    20 ar  
    33    18    43 1   
    34    19    21 1   
    35    19    22 ar  
    36    20    22 ar  
    37    20    44 1   
    38    21    23 1   
    39    21    24 1   
    40    21    45 1   
    41    22    46 1   
    42    23    25 1   
    43    23    47 1   
    44    23    48 1   
    45    24    26 1   
    46    24    49 1   
    47    24    50 1   
    48    25    27 1   
    49    25    51 1   
    50    25    52 1   
    51    26    27 1   
    52    26    53 1   
    53    26    54 1   
    54    27    28 1   
    55    28    29 2   
    56    28    30 2   
    57    28    31 1   
    58    31    55 1   
    59    31    56 1   
    60    31    57 1   
@<TRIPOS>SUBSTRUCTURE
     1 03C         1 TEMP              0 ****  ****    0 ROOT
