@<TRIPOS>MOLECULE
molecule
   85    87     1     0     0
SMALL
bcc


@<TRIPOS>ATOM
      1 C1           1.5300     0.0000     0.0000 c3         1 03D       0.133100
      2 C2           2.0400     0.0000     1.4430 c3         1 03D       0.136100
      3 C3           3.5650    -0.1250     1.4450 c3         1 03D      -0.050100
      4 C4           4.0760    -0.0030     2.8570 ca         1 03D      -0.086300
      5 C5           4.2140    -1.1320     3.6430 ca         1 03D      -0.121000
      6 C6           4.6840    -1.0190     4.9380 ca         1 03D      -0.129500
      7 C7           5.0170     0.2220     5.4480 ca         1 03D      -0.130000
      8 C8           4.8790     1.3510     4.6620 ca         1 03D      -0.129500
      9 C9           4.4140     1.2380     3.3650 ca         1 03D      -0.121000
     10 O10          2.0080    -1.1650    -0.6740 oh         1 03D      -0.587800
     11 O11          1.4700    -1.1040     2.1490 oh         1 03D      -0.586800
     12 C12         -2.0060     0.3760    -1.4080 c          1 03D       0.649100
     13 C13         -0.5100     0.2030    -1.4290 c3         1 03D      -0.140700
     14 C14          0.0000     0.0000     0.0000 c3         1 03D      -0.065400
     15 C15         -0.4800    -0.7340    -3.7440 cx         1 03D      -0.160700
     16 C16         -1.5310    -1.6190    -4.4150 cx         1 03D      -0.132400
     17 C17         -0.0530    -1.7780    -4.7780 cx         1 03D      -0.132400
     18 C18         -0.1480    -1.0180    -2.2770 c3         1 03D      -0.053400
     19 C20         -4.8990    -0.3090    -2.7900 c3         1 03D       0.100100
     20 C21         -4.1000     0.9650    -2.5060 c3         1 03D       0.108700
     21 C22         -4.4290     2.0200    -3.5640 c3         1 03D      -0.093400
     22 C23         -3.7270     3.3320    -3.2100 c3         1 03D      -0.069700
     23 C24         -3.9530     4.3500    -4.3300 c3         1 03D      -0.078400
     24 C25         -3.2510     5.6630    -3.9760 c3         1 03D      -0.077900
     25 C26         -3.8240     6.2100    -2.6670 c3         1 03D      -0.080400
     26 C27         -3.5980     5.1920    -1.5460 c3         1 03D      -0.077900
     27 C28         -4.2990     3.8800    -1.9010 c3         1 03D      -0.078400
     28 N29         -2.6680     0.6610    -2.5470 ns         1 03D      -0.572900
     29 C31         -4.5650    -1.3670    -1.7370 c3         1 03D       0.137100
     30 C32         -5.3640    -2.6400    -2.0210 c3         1 03D      -0.115400
     31 C33         -4.9380    -3.7390    -1.0450 c3         1 03D      -0.072700
     32 C34         -5.8230    -4.9710    -1.2470 c3         1 03D      -0.089600
     33 C35         -3.4780    -4.1120    -1.3020 c3         1 03D      -0.089600
     34 O36         -4.9040    -0.8720    -0.4400 oh         1 03D      -0.566800
     35 H1           1.8910     0.8850    -0.5100 h1         1 03D       0.029700
     36 H2           1.7520     0.9250     1.9280 h1         1 03D       0.038700
     37 H3           3.8490    -1.0880     1.0400 hc         1 03D       0.058700
     38 H3A          3.9920     0.6630     0.8360 hc         1 03D       0.058700
     39 H5           3.9530    -2.1050     3.2440 ha         1 03D       0.134000
     40 H6           4.7920    -1.9040     5.5540 ha         1 03D       0.129000
     41 H7           5.3830     0.3100     6.4630 ha         1 03D       0.128000
     42 H8           5.1410     2.3240     5.0610 ha         1 03D       0.129000
     43 H9           4.3060     2.1230     2.7490 ha         1 03D       0.134000
     44 HO10         2.7310    -0.9320    -1.2320 ho         1 03D       0.396000
     45 HO11         0.9780    -0.7850     2.8870 ho         1 03D       0.403000
     46 H13         -0.0500     1.0870    -1.8540 hc         1 03D       0.053700
     47 H14         -0.3610     0.8040     0.6300 hc         1 03D       0.074700
     48 H14A        -0.3610    -0.9470     0.3810 hc         1 03D       0.074700
     49 H15         -0.4550     0.2900    -4.0970 hc         1 03D       0.068700
     50 H16         -1.9460    -2.4050    -3.7950 hc         1 03D       0.075950
     51 H16A        -2.1450    -1.1320    -5.1630 hc         1 03D       0.075950
     52 H17          0.2350    -1.3870    -5.7470 hc         1 03D       0.075950
     53 H17A         0.4340    -2.6590    -4.3790 hc         1 03D       0.075950
     54 H18          0.9110    -1.2250    -2.1800 hc         1 03D       0.071200
     55 H18A        -0.7170    -1.8750    -1.9380 hc         1 03D       0.071200
     56 H20         -5.9590    -0.0850    -2.7530 h1         1 03D       0.029700
     57 H21         -4.3610     1.3430    -1.5250 h1         1 03D       0.099700
     58 H22         -4.0880     1.6770    -4.5330 hc         1 03D       0.049200
     59 H22A        -5.5000     2.1790    -3.5940 hc         1 03D       0.049200
     60 H23         -2.6650     3.1580    -3.0920 hc         1 03D       0.054700
     61 H24         -5.0150     4.5300    -4.4440 hc         1 03D       0.043200
     62 H24A        -3.5460     3.9620    -5.2560 hc         1 03D       0.043200
     63 H25         -2.1890     5.4820    -3.8570 hc         1 03D       0.040700
     64 H25A        -3.4130     6.3830    -4.7690 hc         1 03D       0.040700
     65 H26         -3.3250     7.1380    -2.4160 hc         1 03D       0.040200
     66 H26A        -4.8870     6.3860    -2.7850 hc         1 03D       0.040200
     67 H27         -4.0060     5.5800    -0.6210 hc         1 03D       0.040700
     68 H27A        -2.5360     5.0130    -1.4320 hc         1 03D       0.040700
     69 H28         -5.3610     4.0590    -2.0190 hc         1 03D       0.043200
     70 H28A        -4.1360     3.1600    -1.1080 hc         1 03D       0.043200
     71 HN29        -2.1700     0.7180    -3.4130 hn         1 03D       0.324500
     72 H31         -3.5050    -1.5900    -1.7730 h1         1 03D       0.103700
     73 H32         -6.4210    -2.4370    -1.8980 hc         1 03D       0.043700
     74 H32A        -5.1750    -2.9660    -3.0360 hc         1 03D       0.043700
     75 H33         -5.0450    -3.3800    -0.0280 hc         1 03D       0.063700
     76 H34         -5.7090    -5.3350    -2.2600 hc         1 03D       0.034367
     77 H34A        -5.5280    -5.7460    -0.5490 hc         1 03D       0.034367
     78 H34B        -6.8580    -4.7040    -1.0730 hc         1 03D       0.034367
     79 H35         -2.8300    -3.4110    -0.7900 hc         1 03D       0.034367
     80 H35A        -3.2780    -4.0760    -2.3670 hc         1 03D       0.034367
     81 H35B        -3.2900    -5.1130    -0.9330 hc         1 03D       0.034367
     82 HO36        -5.8420    -0.8230    -0.3570 ho         1 03D       0.383000
     83 O19         -2.6160     0.2580    -0.3650 o          1 03D      -0.593100
     84 O30         -4.5610    -0.8040    -4.0870 oh         1 03D      -0.602800
     85 HO30        -5.3400    -0.8570    -4.6160 ho         1 03D       0.398000
@<TRIPOS>BOND
     1    14     1 1   
     2     1     2 1   
     3     1    10 1   
     4     1    35 1   
     5     2    11 1   
     6     2     3 1   
     7     2    36 1   
     8     3     4 1   
     9     3    37 1   
    10     3    38 1   
    11     9     4 ar  
    12     4     5 ar  
    13     5     6 ar  
    14     5    39 1   
    15     7     6 ar  
    16     6    40 1   
    17     8     7 ar  
    18     7    41 1   
    19     9     8 ar  
    20     8    42 1   
    21     9    43 1   
    22    10    44 1   
    23    11    45 1   
    24    83    12 2   
    25    12    28 1   
    26    12    13 1   
    27    18    13 1   
    28    13    14 1   
    29    13    46 1   
    30    14    47 1   
    31    14    48 1   
    32    16    15 1   
    33    15    17 1   
    34    15    18 1   
    35    15    49 1   
    36    16    17 1   
    37    16    50 1   
    38    16    51 1   
    39    17    52 1   
    40    17    53 1   
    41    18    54 1   
    42    18    55 1   
    43    29    19 1   
    44    19    84 1   
    45    19    20 1   
    46    19    56 1   
    47    20    28 1   
    48    20    21 1   
    49    20    57 1   
    50    21    22 1   
    51    21    58 1   
    52    21    59 1   
    53    27    22 1   
    54    22    23 1   
    55    22    60 1   
    56    23    24 1   
    57    23    61 1   
    58    23    62 1   
    59    25    24 1   
    60    24    63 1   
    61    24    64 1   
    62    26    25 1   
    63    25    65 1   
    64    25    66 1   
    65    27    26 1   
    66    26    67 1   
    67    26    68 1   
    68    27    69 1   
    69    27    70 1   
    70    28    71 1   
    71    84    85 1   
    72    30    29 1   
    73    34    29 1   
    74    29    72 1   
    75    31    30 1   
    76    30    73 1   
    77    30    74 1   
    78    32    31 1   
    79    31    33 1   
    80    31    75 1   
    81    32    76 1   
    82    32    77 1   
    83    32    78 1   
    84    33    79 1   
    85    33    80 1   
    86    33    81 1   
    87    34    82 1   
@<TRIPOS>SUBSTRUCTURE
     1 03D         1 TEMP              0 ****  ****    0 ROOT
