@<TRIPOS>MOLECULE
03G
   48    49     1     0     0
SMALL
bcc


@<TRIPOS>ATOM
      1 C1           0.7870    -0.8190     0.0310 ca         1 03G       0.025400
      2 C2           2.0010    -0.1500     0.2310 ca         1 03G      -0.100500
      3 C3           2.3880     0.2280     1.5090 ca         1 03G      -0.128000
      4 C4           1.5560    -0.0620     2.6160 ca         1 03G       0.004600
      5 C5           0.3370    -0.7330     2.4090 ca         1 03G      -0.128000
      6 C6          -0.0390    -1.1070     1.1200 ca         1 03G      -0.100500
      7 N1           1.9990     0.3560     3.8980 ns         1 03G      -0.389100
      8 C7           1.4110     0.0480     5.0810 c          1 03G       0.612100
      9 Cl1          0.3240    -1.2770    -1.5290 cl         1 03G      -0.043400
     10 C8           2.1320     0.6320     6.3250 c          1 03G       0.443100
     11 N2           1.5080     0.2720     7.6360 ny         1 03G      -0.671800
     12 C9           2.4490    -0.5140     8.5300 c3         1 03G       0.140500
     13 C10          2.5920    -1.9610     8.0630 c3         1 03G      -0.100900
     14 C11          3.7190    -2.6520     8.8710 c3         1 03G       0.205200
     15 N3           3.8380    -2.0950    10.2230 n7         1 03G      -0.830200
     16 C12          2.6210    -1.5800    10.8500 c3         1 03G       0.205200
     17 C13          1.9650    -0.4690     9.9820 c3         1 03G      -0.100900
     18 C14          3.4420    -4.1650     8.8360 c3         1 03G      -0.113350
     19 C15          5.0500    -2.4260     8.1230 c3         1 03G      -0.113350
     20 C16          2.9890    -0.9370    12.2050 c3         1 03G      -0.113350
     21 C17          1.5500    -2.6440    11.1520 c3         1 03G      -0.113350
     22 O1           3.1220     1.3460     6.3260 o          1 03G      -0.396100
     23 O2           0.3840    -0.6220     5.2890 o          1 03G      -0.565100
     24 H1           2.6560     0.0810    -0.6270 ha         1 03G       0.168000
     25 H2           3.3470     0.7540     1.6410 ha         1 03G       0.158500
     26 H3          -0.3370    -0.9740     3.2470 ha         1 03G       0.158500
     27 H4          -0.9970    -1.6330     0.9690 ha         1 03G       0.168000
     28 H5           2.8320     0.9140     3.9090 hn         1 03G       0.353500
     29 H6           0.6600    -0.2900     7.4550 hn         1 03G       0.473300
     30 H7           3.4550     0.0060     8.4550 hx         1 03G       0.129700
     31 H8           2.8490    -2.0120     6.9740 hc         1 03G       0.066950
     32 H9           1.6250    -2.5110     8.2140 hc         1 03G       0.066950
     33 H10          4.2860    -2.7560    10.8290 hn         1 03G       0.395800
     34 H11          2.2220     0.5350    10.4140 hc         1 03G       0.066950
     35 H12          0.8510    -0.5930    10.0380 hc         1 03G       0.066950
     36 H13          3.3070    -4.4990     7.7800 hc         1 03G       0.052033
     37 H14          4.3060    -4.7220     9.2740 hc         1 03G       0.052033
     38 H15          2.5230    -4.4240     9.4140 hc         1 03G       0.052033
     39 H16          5.2680    -1.3370     8.0150 hc         1 03G       0.052033
     40 H17          5.8940    -2.9000     8.6800 hc         1 03G       0.052033
     41 H18          4.9880    -2.8910     7.1110 hc         1 03G       0.052033
     42 H19          2.0820    -0.4520    12.6380 hc         1 03G       0.052033
     43 H20          3.3490    -1.7170    12.9170 hc         1 03G       0.052033
     44 H21          3.7890    -0.1680    12.0820 hc         1 03G       0.052033
     45 H22          1.9980    -3.4940    11.7220 hc         1 03G       0.052033
     46 H23          1.0960    -3.0440    10.2140 hc         1 03G       0.052033
     47 H24          0.7380    -2.1980    11.7750 hc         1 03G       0.052033
     48 H231         1.2390     1.1320     8.1280 hn         1 03G       0.473300
@<TRIPOS>BOND
     1     1     2 ar  
     2     1     6 ar  
     3     1     9 1   
     4     2     3 ar  
     5     2    24 1   
     6     3     4 ar  
     7     3    25 1   
     8     4     5 ar  
     9     4     7 1   
    10     5     6 ar  
    11     5    26 1   
    12     6    27 1   
    13     7     8 1   
    14     7    28 1   
    15     8    10 1   
    16     8    23 2   
    17    10    11 1   
    18    10    22 2   
    19    11    12 1   
    20    11    29 1   
    21    11    48 1   
    22    12    13 1   
    23    12    17 1   
    24    12    30 1   
    25    13    14 1   
    26    13    31 1   
    27    13    32 1   
    28    14    15 1   
    29    14    18 1   
    30    14    19 1   
    31    15    16 1   
    32    15    33 1   
    33    16    17 1   
    34    16    20 1   
    35    16    21 1   
    36    17    34 1   
    37    17    35 1   
    38    18    36 1   
    39    18    37 1   
    40    18    38 1   
    41    19    39 1   
    42    19    40 1   
    43    19    41 1   
    44    20    42 1   
    45    20    43 1   
    46    20    44 1   
    47    21    45 1   
    48    21    46 1   
    49    21    47 1   
@<TRIPOS>SUBSTRUCTURE
     1 03G         1 TEMP              0 ****  ****    0 ROOT
