@<TRIPOS>MOLECULE
03G
   47    48     1     0     0
SMALL
bcc


@<TRIPOS>ATOM
      1 C1           0.0000     0.0000     0.0000 ca         1 03G      -0.044600
      2 C2           1.3840     0.0000     0.0000 ca         1 03G      -0.081000
      3 C3           2.0750     0.0000     1.1940 ca         1 03G      -0.103500
      4 C4           1.3810    -0.0020     2.3970 ca         1 03G      -0.100400
      5 C5          -0.0070    -0.0020     2.3950 ca         1 03G      -0.103500
      6 C6          -0.6940    -0.0020     1.1970 ca         1 03G      -0.081000
      7 N1           2.0790    -0.0030     3.6080 ns         1 03G       0.011900
      8 C7           3.2600     0.6400     3.7070 c          1 03G       0.488100
      9 Cl1         -0.8670     0.0070    -1.5040 cl         1 03G      -0.027400
     10 C8           4.0620     0.5410     4.9630 c          1 03G       0.502100
     11 N2           5.2430     1.1820     5.0600 ns         1 03G      -0.142900
     12 C9           6.0320     1.0840     6.2950 c3         1 03G       0.006700
     13 C10          5.5630     2.1620     7.2750 c3         1 03G      -0.070400
     14 C11          6.3760     2.0730     8.5680 c3         1 03G       0.121200
     15 N3           7.8040     2.1090     8.3080 n7         1 03G      -0.572200
     16 C12          8.3510     1.2890     7.2430 c3         1 03G       0.121200
     17 C13          7.5050     1.3280     5.9720 c3         1 03G      -0.070400
     18 C14          6.0160     3.3050     9.4270 c3         1 03G      -0.003350
     19 C15          5.9690     0.8290     9.3590 c3         1 03G      -0.003350
     20 C16          8.5460    -0.1610     7.6910 c3         1 03G      -0.003350
     21 C17          9.7480     1.8470     6.8840 c3         1 03G      -0.003350
     22 O1           3.6510    -0.1170     5.8950 o          1 03G      -0.655100
     23 O2           3.6730     1.2970     2.7730 o          1 03G      -0.640100
     24 H1           1.9250     0.0010    -0.9390 ha         1 03G       0.115500
     25 H2           3.1590     0.0000     1.1930 ha         1 03G       0.125500
     26 H3          -0.5510    -0.0040     3.3320 ha         1 03G       0.125500
     27 H4          -1.7780    -0.0020     1.1940 ha         1 03G       0.115500
     28 H5           1.7010    -0.4790     4.4030 hn         1 03G       0.189500
     29 H6           5.5810     1.7280     4.2920 hn         1 03G       0.194500
     30 H7           5.9100     0.1040     6.7400 h1         1 03G       0.073700
     31 H8           4.5140     2.0120     7.4990 hc         1 03G       0.028700
     32 H9           5.7050     3.1390     6.8290 hc         1 03G       0.028700
     33 H10          8.0960     3.0580     8.1830 hn         1 03G       0.262800
     34 H11          7.6100     2.3000     5.5050 hc         1 03G       0.028700
     35 H12          7.8520     0.5600     5.2910 hc         1 03G       0.028700
     36 H13          6.5600     3.2650    10.3630 hc         1 03G       0.011283
     37 H14          4.9510     3.3070     9.6280 hc         1 03G       0.011283
     38 H15          6.2840     4.2090     8.8920 hc         1 03G       0.011283
     39 H16          6.0140    -0.0400     8.7140 hc         1 03G       0.011283
     40 H17          4.9590     0.9520     9.7300 hc         1 03G       0.011283
     41 H18          6.6470     0.6940    10.1930 hc         1 03G       0.011283
     42 H19          9.3000    -0.6320     7.0720 hc         1 03G       0.011283
     43 H20          8.8650    -0.1800     8.7260 hc         1 03G       0.011283
     44 H21          7.6110    -0.6990     7.5920 hc         1 03G       0.011283
     45 H22          9.6580     2.8860     6.5900 hc         1 03G       0.011283
     46 H23         10.3990     1.7720     7.7470 hc         1 03G       0.011283
     47 H24         10.1660     1.2740     6.0650 hc         1 03G       0.011283
@<TRIPOS>BOND
     1     1     2 ar  
     2     1     6 ar  
     3     1     9 1   
     4     2     3 ar  
     5     2    24 1   
     6     3     4 ar  
     7     3    25 1   
     8     4     5 ar  
     9     4     7 1   
    10     5     6 ar  
    11     5    26 1   
    12     6    27 1   
    13     7     8 1   
    14     7    28 1   
    15     8    10 1   
    16     8    23 2   
    17    10    11 1   
    18    10    22 2   
    19    11    12 1   
    20    11    29 1   
    21    12    13 1   
    22    12    17 1   
    23    12    30 1   
    24    13    14 1   
    25    13    31 1   
    26    13    32 1   
    27    14    15 1   
    28    14    18 1   
    29    14    19 1   
    30    15    16 1   
    31    15    33 1   
    32    16    17 1   
    33    16    20 1   
    34    16    21 1   
    35    17    34 1   
    36    17    35 1   
    37    18    36 1   
    38    18    37 1   
    39    18    38 1   
    40    19    39 1   
    41    19    40 1   
    42    19    41 1   
    43    20    42 1   
    44    20    43 1   
    45    20    44 1   
    46    21    45 1   
    47    21    46 1   
    48    21    47 1   
@<TRIPOS>SUBSTRUCTURE
     1 03G         1 TEMP              0 ****  ****    0 ROOT
