@<TRIPOS>MOLECULE
molecule
   47    48     1     0     0
SMALL
bcc


@<TRIPOS>ATOM
      1 C1           0.0000     0.0000     0.0000 ca         1 03G       0.014400
      2 C2           1.3840     0.0000     0.0000 ca         1 03G      -0.104000
      3 C3           2.0750     0.0000     1.1940 ca         1 03G      -0.135000
      4 C4           1.3810    -0.0020     2.3970 ca         1 03G       0.054600
      5 C5          -0.0070    -0.0020     2.3950 ca         1 03G      -0.135000
      6 C6          -0.6940    -0.0020     1.1970 ca         1 03G      -0.104000
      7 N1           2.0790    -0.0030     3.6080 ns         1 03G      -0.451100
      8 C7           3.2600     0.6400     3.7070 c          1 03G       0.593100
      9 Cl1         -0.8670     0.0070    -1.5040 cl         1 03G      -0.109400
     10 C8           4.0620     0.5410     4.9630 c          1 03G       0.595100
     11 N2           5.2430     1.1820     5.0600 ns         1 03G      -0.551900
     12 C9           6.0320     1.0840     6.2950 c3         1 03G       0.117700
     13 C10          5.5630     2.1620     7.2750 c3         1 03G      -0.122900
     14 C11          6.3760     2.0730     8.5680 c3         1 03G       0.197200
     15 N3           7.8040     2.1090     8.3080 n7         1 03G      -0.833200
     16 C12          8.3510     1.2890     7.2430 c3         1 03G       0.197200
     17 C13          7.5050     1.3280     5.9720 c3         1 03G      -0.122900
     18 C14          6.0160     3.3050     9.4270 c3         1 03G      -0.086600
     19 C15          5.9690     0.8290     9.3590 c3         1 03G      -0.086600
     20 C16          8.5460    -0.1610     7.6910 c3         1 03G      -0.086600
     21 C17          9.7480     1.8470     6.8840 c3         1 03G      -0.086600
     22 O1           3.6510    -0.1170     5.8950 o          1 03G      -0.605100
     23 O2           3.6730     1.2970     2.7730 o          1 03G      -0.589100
     24 H1           1.9250     0.0010    -0.9390 ha         1 03G       0.148000
     25 H2           3.1590     0.0000     1.1930 ha         1 03G       0.152000
     26 H3          -0.5510    -0.0040     3.3320 ha         1 03G       0.152000
     27 H4          -1.7780    -0.0020     1.1940 ha         1 03G       0.148000
     28 H5           1.7010    -0.4790     4.4030 hn         1 03G       0.348500
     29 H6           5.5810     1.7280     4.2920 hn         1 03G       0.335500
     30 H7           5.9100     0.1040     6.7400 h1         1 03G       0.089700
     31 H8           4.5140     2.0120     7.4990 hc         1 03G       0.052450
     32 H9           5.7050     3.1390     6.8290 hc         1 03G       0.052450
     33 H10          8.0960     3.0580     8.1830 hn         1 03G       0.365800
     34 H11          7.6100     2.3000     5.5050 hc         1 03G       0.052450
     35 H12          7.8520     0.5600     5.2910 hc         1 03G       0.052450
     36 H13          6.5600     3.2650    10.3630 hc         1 03G       0.041033
     37 H14          4.9510     3.3070     9.6280 hc         1 03G       0.041033
     38 H15          6.2840     4.2090     8.8920 hc         1 03G       0.041033
     39 H16          6.0140    -0.0400     8.7140 hc         1 03G       0.041033
     40 H17          4.9590     0.9520     9.7300 hc         1 03G       0.041033
     41 H18          6.6470     0.6940    10.1930 hc         1 03G       0.041033
     42 H19          9.3000    -0.6320     7.0720 hc         1 03G       0.041033
     43 H20          8.8650    -0.1800     8.7260 hc         1 03G       0.041033
     44 H21          7.6110    -0.6990     7.5920 hc         1 03G       0.041033
     45 H22          9.6580     2.8860     6.5900 hc         1 03G       0.041033
     46 H23         10.3990     1.7720     7.7470 hc         1 03G       0.041033
     47 H24         10.1660     1.2740     6.0650 hc         1 03G       0.041033
@<TRIPOS>BOND
     1     1     6 ar
     2     2     1 ar
     3     2     3 ar
     4     2    24 1
     5     3     4 ar
     6     3    25 1
     7     4     7 1
     8     4     5 ar
     9     5    26 1
    10     6     5 ar
    11     6    27 1
    12     7     8 1
    13     7    28 1
    14     8    10 1
    15     8    23 2
    16     9     1 1
    17    10    11 1
    18    11    12 1
    19    11    29 1
    20    12    17 1
    21    12    30 1
    22    13    12 1
    23    13    31 1
    24    13    32 1
    25    14    13 1
    26    14    15 1
    27    15    16 1
    28    15    33 1
    29    16    17 1
    30    16    20 1
    31    17    34 1
    32    17    35 1
    33    18    14 1
    34    18    36 1
    35    18    37 1
    36    18    38 1
    37    19    14 1
    38    19    39 1
    39    19    40 1
    40    19    41 1
    41    20    42 1
    42    20    43 1
    43    20    44 1
    44    21    16 1
    45    21    45 1
    46    21    46 1
    47    21    47 1
    48    22    10 2
@<TRIPOS>SUBSTRUCTURE
     1 03G         1 TEMP              0 ****  ****    0 ROOT
