@<TRIPOS>MOLECULE
molecule
   19    18     1     0     0
SMALL
bcc


@<TRIPOS>ATOM
      1 Cl           0.0000     0.0000     0.0000 cl         1 03H      -0.266400
      2 C1           2.3060    -1.2300    -0.7110 c          1 03H       0.888600
      3 O1           2.8120    -1.1290    -1.9500 o          1 03H      -0.830800
      4 C2           1.8030     0.0000     0.0000 c3         1 03H      -0.018300
      5 O2           2.2470    -2.3080    -0.1680 o          1 03H      -0.830800
      6 C3           2.3130     0.0000     1.4430 c3         1 03H      -0.070400
      7 C4           1.9080     1.3070     2.1280 c3         1 03H      -0.087700
      8 C5           2.3080     1.2550     3.6030 c3         1 03H      -0.086100
      9 C6           2.6180     2.4790     1.4470 c3         1 03H      -0.086100
     10 H2           2.1630     0.8850    -0.5100 h1         1 03H       0.062700
     11 H3           1.8820    -0.8370     1.9780 hc         1 03H       0.057700
     12 H3A          3.3930    -0.0880     1.4430 hc         1 03H       0.057700
     13 H4           0.8360     1.4390     2.0490 hc         1 03H       0.057700
     14 H5           2.0080     2.1740     4.0910 hc         1 03H       0.025200
     15 H5A          3.3820     1.1380     3.6820 hc         1 03H       0.025200
     16 H5B          1.8180     0.4160     4.0810 hc         1 03H       0.025200
     17 H6           2.0900     2.7430     0.5390 hc         1 03H       0.025200
     18 H6A          3.6340     2.1940     1.2040 hc         1 03H       0.025200
     19 H6B          2.6310     3.3310     2.1170 hc         1 03H       0.025200
@<TRIPOS>BOND
     1     1     4 1
     2     5     2 1
     3     3     2 1
     4     2     4 1
     5     4     6 1
     6     4    10 1
     7     6     7 1
     8     6    11 1
     9     6    12 1
    10     7     9 1
    11     7     8 1
    12     7    13 1
    13     8    14 1
    14     8    15 1
    15     8    16 1
    16     9    17 1
    17     9    18 1
    18     9    19 1
@<TRIPOS>SUBSTRUCTURE
     1 03H         1 TEMP              0 ****  ****    0 ROOT
