@<TRIPOS>MOLECULE
03H
   19    18     1     0     0
SMALL
bcc


@<TRIPOS>ATOM
      1 Cl           0.1450     0.2410    -0.1380 cl         1 03H      -0.276400
      2 C1           2.3330    -1.3030    -0.7340 c          1 03H       0.918600
      3 O1           2.8120    -1.1890    -1.8950 o          1 03H      -0.823800
      4 C2           1.9160     0.0190    -0.0300 c3         1 03H      -0.040300
      5 O2           2.2120    -2.3840    -0.0990 o          1 03H      -0.823800
      6 C3           2.3690     0.0180     1.4110 c3         1 03H      -0.072400
      7 C4           2.2300     1.3620     2.1110 c3         1 03H      -0.076700
      8 C5           3.3140     2.3260     1.6740 c3         1 03H      -0.084100
      9 C6           2.2750     1.1760     3.6140 c3         1 03H      -0.084100
     10 H2           2.3290     0.8890    -0.5950 h1         1 03H       0.051700
     11 H3           3.4460    -0.3020     1.4260 hc         1 03H       0.059200
     12 H3A          1.7910    -0.7670     1.9680 hc         1 03H       0.059200
     13 H4           1.2300     1.8040     1.8390 hc         1 03H       0.052700
     14 H5           4.3220     1.9350     1.9520 hc         1 03H       0.023533
     15 H5A          3.2840     2.4660     0.5660 hc         1 03H       0.023533
     16 H5B          3.1720     3.3200     2.1630 hc         1 03H       0.023533
     17 H6           3.2350     0.6930     3.9190 hc         1 03H       0.023533
     18 H6A          1.4310     0.5260     3.9490 hc         1 03H       0.023533
     19 H6B          2.1940     2.1610     4.1330 hc         1 03H       0.023533
@<TRIPOS>BOND
     1     1     4 1   
     2     2     3 1   
     3     2     4 1   
     4     2     5 1   
     5     4     6 1   
     6     4    10 1   
     7     6     7 1   
     8     6    11 1   
     9     6    12 1   
    10     7     8 1   
    11     7     9 1   
    12     7    13 1   
    13     8    14 1   
    14     8    15 1   
    15     8    16 1   
    16     9    17 1   
    17     9    18 1   
    18     9    19 1   
@<TRIPOS>SUBSTRUCTURE
     1 03H         1 TEMP              0 ****  ****    0 ROOT
