@<TRIPOS>MOLECULE
03H
   19    18     1     0     0
SMALL
bcc


@<TRIPOS>ATOM
      1 Cl           0.0000     0.0000     0.0000 cl         1 03H      -0.217400
      2 C1           2.3060    -1.2300    -0.7110 c          1 03H       0.965600
      3 O1           2.8120    -1.1290    -1.9500 o          1 03H      -0.879300
      4 C2           1.8030     0.0000     0.0000 c3         1 03H      -0.014300
      5 O2           2.2470    -2.3080    -0.1680 o          1 03H      -0.879300
      6 C3           2.3130     0.0000     1.4430 c3         1 03H      -0.031400
      7 C4           1.9080     1.3070     2.1280 c3         1 03H      -0.070700
      8 C5           2.3080     1.2550     3.6030 c3         1 03H       0.003900
      9 C6           2.6180     2.4790     1.4470 c3         1 03H       0.003900
     10 H2           2.1630     0.8850    -0.5110 h1         1 03H       0.036700
     11 H3           1.8810    -0.8370     1.9780 hc         1 03H       0.032700
     12 H3A          3.3930    -0.0890     1.4440 hc         1 03H       0.032700
     13 H4           0.8360     1.4390     2.0490 hc         1 03H       0.033700
     14 H5           3.3750     1.0870     3.6820 hc         1 03H      -0.003133
     15 H5A          1.7780     0.4470     4.0930 hc         1 03H      -0.003133
     16 H5B          2.0550     2.1940     4.0790 hc         1 03H      -0.003133
     17 H6           3.6750     2.2600     1.3590 hc         1 03H      -0.003133
     18 H6A          2.1970     2.6330     0.4600 hc         1 03H      -0.003133
     19 H6B          2.4830     3.3760     2.0400 hc         1 03H      -0.003133
@<TRIPOS>BOND
     1     1     4 1   
     2     2     3 1   
     3     2     4 1   
     4     2     5 1   
     5     4     6 1   
     6     4    10 1   
     7     6     7 1   
     8     6    11 1   
     9     6    12 1   
    10     7     8 1   
    11     7     9 1   
    12     7    13 1   
    13     8    14 1   
    14     8    15 1   
    15     8    16 1   
    16     9    17 1   
    17     9    18 1   
    18     9    19 1   
@<TRIPOS>SUBSTRUCTURE
     1 03H         1 TEMP              0 ****  ****    0 ROOT
