@<TRIPOS>MOLECULE
03I
   69    71     1     0     0
SMALL
bcc


@<TRIPOS>ATOM
      1 C1           0.1170    -0.0490    -0.1140 cp         1 03I      -0.104000
      2 C2           1.4950    -0.3230    -0.0830 ca         1 03I      -0.077000
      3 C3           2.1910    -0.3330     1.1160 ca         1 03I      -0.183000
      4 C4           1.5040    -0.0570     2.3170 ca         1 03I       0.150100
      5 C5           0.1320     0.2210     2.3010 ca         1 03I      -0.183000
      6 C6          -0.5510     0.2200     1.0870 ca         1 03I      -0.077000
      7 O7           2.2880    -0.0940     3.4470 os         1 03I      -0.322900
      8 C8          -0.6050    -0.0420    -1.3830 cp         1 03I       0.007000
      9 C9          -0.0150     0.5000    -2.5350 ca         1 03I      -0.120500
     10 C10         -0.7020     0.5050    -3.7450 ca         1 03I      -0.118500
     11 C11         -1.9910    -0.0330    -3.8290 ca         1 03I      -0.125300
     12 C12         -2.5850    -0.5700    -2.6820 ca         1 03I      -0.118500
     13 C13         -1.9000    -0.5750    -1.4710 ca         1 03I      -0.120500
     14 C14         -2.7300    -0.0200    -5.1210 c3         1 03I      -0.023100
     15 C15         -2.5570    -1.3450    -5.8430 c3         1 03I      -0.064400
     16 C16         -3.3910    -1.4690    -7.1220 c3         1 03I      -0.272200
     17 C17         -4.8350    -1.5720    -6.7550 c          1 03I       0.582100
     18 S18         -2.8390    -2.9340    -8.0890 s6         1 03I       1.339000
     19 C19         -2.6370    -4.0820    -6.9200 c3         1 03I      -0.425300
     20 O20         -4.0060    -3.1720    -8.8380 o          1 03I      -0.628300
     21 O21         -1.6630    -2.5900    -8.7230 o          1 03I      -0.628300
     22 C22         -3.1190    -0.2790    -8.0290 c3         1 03I      -0.115100
     23 N23         -5.8370    -1.3050    -7.8910 ny         1 03I      -0.467300
     24 O24         -5.3540    -1.8910    -5.6990 o          1 03I      -0.408100
     25 C25          1.6310     0.2270     4.6830 c3         1 03I       0.127400
     26 C26          2.7140     0.1560     5.7470 c3         1 03I      -0.089400
     27 C27          2.0770     0.3760     7.1180 c3         1 03I       0.173800
     28 O28         -7.1190    -1.1840    -7.4860 oh         1 03I      -0.356300
     29 N29          3.0470     0.5760     8.1850 n3         1 03I      -0.723600
     30 C30          3.9210    -0.5740     8.3820 c3         1 03I       0.130800
     31 C31          4.8650    -0.4030     9.5780 c3         1 03I       0.126400
     32 O32          4.1570    -0.0520    10.7610 os         1 03I      -0.412600
     33 C33          3.3830     1.1280    10.5880 c3         1 03I       0.126400
     34 C34          2.3970     0.9910     9.4240 c3         1 03I       0.130800
     35 H2           2.0290    -0.5410    -1.0200 ha         1 03I       0.134500
     36 H3           3.2680    -0.5500     1.1500 ha         1 03I       0.150500
     37 H5          -0.4140     0.4410     3.2290 ha         1 03I       0.150500
     38 H6          -1.6290     0.4470     1.0750 ha         1 03I       0.134500
     39 H9           0.9950     0.9350    -2.4770 ha         1 03I       0.147000
     40 H10         -0.2300     0.9440    -4.6370 ha         1 03I       0.129000
     41 H12         -3.6020    -0.9860    -2.7340 ha         1 03I       0.129000
     42 H13         -2.3740    -1.0040    -0.5740 ha         1 03I       0.147000
     43 H14         -2.3520     0.8190    -5.7660 hc         1 03I       0.051200
     44 H14A        -3.8220     0.1610    -4.9320 hc         1 03I       0.051200
     45 H15         -1.4750    -1.4660    -6.1250 hc         1 03I       0.079200
     46 H15A        -2.8360    -2.1730    -5.1360 hc         1 03I       0.079200
     47 H19         -2.5540    -5.1190    -7.3620 h1         1 03I       0.159700
     48 H19A        -3.4640    -4.1650    -6.1670 h1         1 03I       0.159700
     49 H19B        -1.6950    -3.9630    -6.3150 h1         1 03I       0.159700
     50 H22         -3.5910     0.6530    -7.6360 hc         1 03I       0.082033
     51 H22A        -2.0110    -0.0980    -8.0810 hc         1 03I       0.082033
     52 H22B        -3.4770    -0.4730    -9.0720 hc         1 03I       0.082033
     53 HN23        -5.6040    -0.4040    -8.3550 hn         1 03I       0.503300
     54 H25          0.8190    -0.5220     4.8770 h1         1 03I       0.042200
     55 H25A         1.1910     1.2560     4.6170 h1         1 03I       0.042200
     56 H26          3.2140    -0.8450     5.7000 hc         1 03I       0.068200
     57 H26A         3.4940     0.9340     5.5390 hc         1 03I       0.068200
     58 H27          1.4390     1.3060     7.0720 h1         1 03I       0.031700
     59 H27A         1.3890    -0.4950     7.3350 h1         1 03I       0.031700
     60 HO28        -7.2750    -1.7810    -6.7130 ho         1 03I       0.482000
     61 H30          3.3290    -1.5240     8.5270 h1         1 03I       0.040450
     62 H30A         4.5460    -0.6910     7.4530 h1         1 03I       0.040450
     63 H31          5.6420     0.3760     9.3600 h1         1 03I       0.056450
     64 H31A         5.3550    -1.3810     9.8240 h1         1 03I       0.056450
     65 H33          2.8250     1.2410    11.5550 h1         1 03I       0.056450
     66 H33A         4.0640     2.0060    10.4300 h1         1 03I       0.056450
     67 H34          1.9190     1.9930     9.2410 h1         1 03I       0.040450
     68 H34A         1.5850     0.2670     9.7280 h1         1 03I       0.040450
     69 H232        -5.7600    -2.0770    -8.6000 hn         1 03I       0.503300
@<TRIPOS>BOND
     1     1     2 ar  
     2     1     6 ar  
     3     1     8 1   
     4     2     3 ar  
     5     2    35 1   
     6     3     4 ar  
     7     3    36 1   
     8     4     5 ar  
     9     4     7 1   
    10     5     6 ar  
    11     5    37 1   
    12     6    38 1   
    13     7    25 1   
    14     8     9 ar  
    15     8    13 ar  
    16     9    10 ar  
    17     9    39 1   
    18    10    11 ar  
    19    10    40 1   
    20    11    12 ar  
    21    11    14 1   
    22    12    13 ar  
    23    12    41 1   
    24    13    42 1   
    25    14    15 1   
    26    14    43 1   
    27    14    44 1   
    28    15    16 1   
    29    15    45 1   
    30    15    46 1   
    31    16    17 1   
    32    16    18 1   
    33    16    22 1   
    34    17    23 1   
    35    17    24 2   
    36    18    19 1   
    37    18    20 2   
    38    18    21 2   
    39    19    47 1   
    40    19    48 1   
    41    19    49 1   
    42    22    50 1   
    43    22    51 1   
    44    22    52 1   
    45    23    28 1   
    46    23    53 1   
    47    23    69 1   
    48    25    26 1   
    49    25    54 1   
    50    25    55 1   
    51    26    27 1   
    52    26    56 1   
    53    26    57 1   
    54    27    29 1   
    55    27    58 1   
    56    27    59 1   
    57    28    60 1   
    58    29    30 1   
    59    29    34 1   
    60    30    31 1   
    61    30    61 1   
    62    30    62 1   
    63    31    32 1   
    64    31    63 1   
    65    31    64 1   
    66    32    33 1   
    67    33    34 1   
    68    33    65 1   
    69    33    66 1   
    70    34    67 1   
    71    34    68 1   
@<TRIPOS>SUBSTRUCTURE
     1 03I         1 TEMP              0 ****  ****    0 ROOT
