@<TRIPOS>MOLECULE
molecule
   68    70     1     0     0
SMALL
bcc


@<TRIPOS>ATOM
      1 C1           0.0000     0.0000     0.0000 cp         1 03I      -0.076000
      2 C2           1.3940     0.0000     0.0000 ca         1 03I      -0.081000
      3 C3           2.0830     0.0000     1.1950 ca         1 03I      -0.189500
      4 C4           1.3880    -0.0010     2.3980 ca         1 03I       0.147100
      5 C5          -0.0000    -0.0020     2.4010 ca         1 03I      -0.189500
      6 C6          -0.6940    -0.0000     1.2090 ca         1 03I      -0.081000
      7 O7           2.0680    -0.0020     3.5740 os         1 03I      -0.328900
      8 C8          -0.7430     0.0070    -1.2840 cp         1 03I      -0.025000
      9 C9          -0.0500     0.0080    -2.4930 ca         1 03I      -0.121000
     10 C10         -0.7470     0.0130    -3.6850 ca         1 03I      -0.119000
     11 C11         -2.1310     0.0190    -3.6800 ca         1 03I      -0.082300
     12 C12         -2.8230     0.0180    -2.4820 ca         1 03I      -0.119000
     13 C13         -2.1370     0.0070    -1.2850 ca         1 03I      -0.121000
     14 C14         -2.8850     0.0260    -4.9840 c3         1 03I      -0.071100
     15 C15         -3.1460    -1.4150    -5.4300 c3         1 03I      -0.043400
     16 C16         -4.0360    -1.4100    -6.6740 c3         1 03I      -0.244200
     17 C17         -4.4170    -2.8250    -7.0250 c          1 03I       0.672100
     18 S18         -3.1320    -0.6670    -8.0610 s6         1 03I       1.106000
     19 C19         -1.7740    -1.8460    -8.2970 c3         1 03I      -0.226300
     20 O20         -3.9630    -0.6960    -9.2120 o          1 03I      -0.617300
     21 O21         -2.5840     0.5730    -7.6310 o          1 03I      -0.617300
     22 C22         -5.3000    -0.5960    -6.3950 c3         1 03I      -0.061100
     23 N23         -4.9360    -3.1030    -8.2380 ns         1 03I      -0.481400
     24 O24         -4.2560    -3.7140    -6.2160 o          1 03I      -0.550100
     25 C25          1.2920    -0.0020     4.7730 c3         1 03I       0.137400
     26 C26          2.2260    -0.0030     5.9850 c3         1 03I      -0.084400
     27 C27          1.3940    -0.0040     7.2690 c3         1 03I       0.164800
     28 O28         -5.2940    -4.4320    -8.5670 oh         1 03I      -0.357100
     29 N29          2.2900    -0.0050     8.4330 n3         1 03I      -0.726600
     30 C30          1.5400    -0.2450     9.6750 c3         1 03I       0.122300
     31 C31          2.5180    -0.2970    10.8520 c3         1 03I       0.139400
     32 O32          3.2670     0.9200    10.8980 os         1 03I      -0.424600
     33 C33          4.0100     1.1840     9.7040 c3         1 03I       0.139400
     34 C34          3.0470     1.2520     8.5160 c3         1 03I       0.122300
     35 H2           1.9370     0.0010    -0.9380 ha         1 03I       0.136000
     36 H3           3.1660     0.0000     1.1960 ha         1 03I       0.140000
     37 H5          -0.5390    -0.0020     3.3400 ha         1 03I       0.140000
     38 H6          -1.7770    -0.0010     1.2120 ha         1 03I       0.136000
     39 H9           1.0330     0.0030    -2.4980 ha         1 03I       0.132500
     40 H10         -0.2090     0.0140    -4.6250 ha         1 03I       0.130000
     41 H12         -3.9060     0.0200    -2.4850 ha         1 03I       0.130000
     42 H13         -2.6800     0.0060    -0.3480 ha         1 03I       0.132500
     43 H14         -3.8290     0.5400    -4.8520 hc         1 03I       0.074700
     44 H14A        -2.2980     0.5360    -5.7380 hc         1 03I       0.074700
     45 H15         -2.2050    -1.8980    -5.6610 hc         1 03I       0.071200
     46 H15A        -3.6430    -1.9550    -4.6330 hc         1 03I       0.071200
     47 H19         -1.9690    -2.7420    -7.7220 h1         1 03I       0.108700
     48 H19A        -0.8450    -1.3980    -7.9650 h1         1 03I       0.108700
     49 H19B        -1.6960    -2.1000    -9.3470 h1         1 03I       0.108700
     50 H22         -5.6170    -0.7590    -5.3720 hc         1 03I       0.058367
     51 H22A        -6.0870    -0.9080    -7.0710 hc         1 03I       0.058367
     52 H22B        -5.0930     0.4570    -6.5440 hc         1 03I       0.058367
     53 HN23        -5.1100    -2.3620    -8.8890 hn         1 03I       0.353500
     54 H25          0.6670     0.8830     4.7990 h1         1 03I       0.035700
     55 H25A         0.6660    -0.8860     4.7980 h1         1 03I       0.035700
     56 H26          2.8500    -0.8880     5.9590 hc         1 03I       0.063700
     57 H26A         2.8510     0.8810     5.9600 hc         1 03I       0.063700
     58 H27          0.7690    -0.8890     7.2930 h1         1 03I       0.035200
     59 H27A         0.7690     0.8800     7.2940 h1         1 03I       0.035200
     60 HO28        -6.0330    -4.4240    -9.1520 ho         1 03I       0.403000
     61 H30          1.0140    -1.1890     9.6010 h1         1 03I       0.043950
     62 H30A         0.8320     0.5600     9.8300 h1         1 03I       0.043950
     63 H31          3.1950    -1.1320    10.7220 h1         1 03I       0.053950
     64 H31A         1.9640    -0.4140    11.7750 h1         1 03I       0.053950
     65 H33          4.7270     0.3890     9.5430 h1         1 03I       0.053950
     66 H33A         4.5270     2.1310     9.8040 h1         1 03I       0.053950
     67 H34          3.6120     1.3940     7.6020 h1         1 03I       0.043950
     68 H34A         2.3610     2.0780     8.6550 h1         1 03I       0.043950
@<TRIPOS>BOND
     1     2     1 ar
     2     1     6 ar
     3     1     8 1
     4     3     2 ar
     5     2    35 1
     6     3     4 ar
     7     3    36 1
     8     7     4 1
     9     4     5 ar
    10     5     6 ar
    11     5    37 1
    12     6    38 1
    13     7    25 1
    14     8     9 ar
    15     8    13 ar
    16     9    10 ar
    17     9    39 1
    18    10    11 ar
    19    10    40 1
    20    11    12 ar
    21    11    14 1
    22    13    12 ar
    23    12    41 1
    24    13    42 1
    25    14    15 1
    26    14    43 1
    27    14    44 1
    28    15    16 1
    29    15    45 1
    30    15    46 1
    31    22    16 1
    32    18    16 1
    33    16    17 1
    34    17    24 2
    35    17    23 1
    36    21    18 2
    37    18    19 1
    38    18    20 2
    39    19    47 1
    40    19    48 1
    41    19    49 1
    42    22    50 1
    43    22    51 1
    44    22    52 1
    45    23    28 1
    46    23    53 1
    47    26    25 1
    48    25    54 1
    49    25    55 1
    50    26    27 1
    51    26    56 1
    52    26    57 1
    53    29    27 1
    54    27    58 1
    55    27    59 1
    56    28    60 1
    57    30    29 1
    58    34    29 1
    59    31    30 1
    60    30    61 1
    61    30    62 1
    62    32    31 1
    63    31    63 1
    64    31    64 1
    65    32    33 1
    66    33    34 1
    67    33    65 1
    68    33    66 1
    69    34    67 1
    70    34    68 1
@<TRIPOS>SUBSTRUCTURE
     1 03I         1 TEMP              0 ****  ****    0 ROOT
