@<TRIPOS>MOLECULE
03J
   37    39     1     0     0
SMALL
bcc


@<TRIPOS>ATOM
      1 O2          -0.3440     0.3770     2.7590 o          1 03J      -0.572000
      2 S7           4.1250    -0.5220     8.0980 ss         1 03J       0.581000
      3 C11         -0.6210     0.1190     1.5740 c1         1 03J      -0.044000
      4 C12          1.7990    -0.0380     1.2100 c3         1 03J      -0.037000
      5 C13          2.3220    -1.4190     1.6130 c3         1 03J      -0.153000
      6 C14          2.2340    -0.9450     4.0670 ca         1 03J      -0.137500
      7 C15          4.7950    -1.9980     4.4320 ca         1 03J      -0.123500
      8 C16          4.0860    -1.5110     5.5370 ca         1 03J      -0.059000
      9 C17          2.7970    -0.9830     5.3360 ca         1 03J      -0.123500
     10 C18          4.6610    -1.5400     6.8590 c2         1 03J      -0.281000
     11 C19          5.6880    -2.3510     7.3060 c2         1 03J      -0.163000
     12 C20          6.0130    -2.1040     8.6820 c2         1 03J      -0.074000
     13 C21          7.0490    -2.8150     9.4020 ca         1 03J       0.007000
     14 C22          7.3910    -4.1300     9.0500 ca         1 03J      -0.124000
     15 C23          8.3860    -4.8110     9.7470 ca         1 03J      -0.133000
     16 C24          9.0540    -4.1930    10.8040 ca         1 03J      -0.142000
     17 C25          8.7200    -2.8870    11.1620 ca         1 03J      -0.133000
     18 C26          7.7260    -2.2010    10.4680 ca         1 03J      -0.124000
     19 C27          2.9470    -1.4390     2.9620 ca         1 03J      -0.029000
     20 C28          4.2290    -1.9620     3.1590 ca         1 03J      -0.137500
     21 C29          5.2060    -1.1090     9.2120 c2         1 03J      -0.461000
     22 H12          2.4040     0.3510     0.3480 h1         1 03J       0.052500
     23 H12A         1.8770     0.6810     2.0680 h1         1 03J       0.052500
     24 H13          1.4530    -2.1340     1.6150 hc         1 03J       0.083500
     25 H13A         3.0540    -1.7840     0.8460 hc         1 03J       0.083500
     26 H14          1.2210    -0.5170     3.8990 ha         1 03J       0.168000
     27 H15          5.8070    -2.4060     4.5690 ha         1 03J       0.119500
     28 H17          2.2280    -0.5960     6.1950 ha         1 03J       0.119500
     29 H19          6.2050    -3.0940     6.6960 ha         1 03J       0.153000
     30 H22          6.8630    -4.6250     8.2210 ha         1 03J       0.135000
     31 H23          8.6450    -5.8420     9.4620 ha         1 03J       0.124000
     32 H24          9.8390    -4.7320    11.3520 ha         1 03J       0.123000
     33 H25          9.2450    -2.3940    11.9930 ha         1 03J       0.124000
     34 H26          7.4700    -1.1690    10.7500 ha         1 03J       0.135000
     35 H28          4.8000    -2.3470     2.3010 ha         1 03J       0.168000
     36 H29          5.2510    -0.7500    10.2380 h4         1 03J       0.163000
     37 OXT          0.4640    -0.1180     0.7600 os         1 03J      -0.341000
@<TRIPOS>BOND
     1     1     3 1   
     2     2    10 1   
     3     2    21 1   
     4     3    37 1   
     5     4     5 1   
     6     4    22 1   
     7     4    23 1   
     8     4    37 1   
     9     5    19 1   
    10     5    24 1   
    11     5    25 1   
    12     6     9 1   
    13     6    19 1   
    14     6    26 1   
    15     7     8 1   
    16     7    20 1   
    17     7    27 1   
    18     8     9 1   
    19     8    10 1   
    20     9    28 1   
    21    10    11 1   
    22    11    12 1   
    23    11    29 1   
    24    12    13 1   
    25    12    21 1   
    26    13    14 1   
    27    13    18 1   
    28    14    15 1   
    29    14    30 1   
    30    15    16 1   
    31    15    31 1   
    32    16    17 1   
    33    16    32 1   
    34    17    18 1   
    35    17    33 1   
    36    18    34 1   
    37    19    20 1   
    38    20    35 1   
    39    21    36 1   
@<TRIPOS>SUBSTRUCTURE
     1 03J         1 TEMP              0 ****  ****    0 ROOT
