@<TRIPOS>MOLECULE
molecule
   37    39     1     0     0
SMALL
bcc


@<TRIPOS>ATOM
      1 O2           0.0000     0.0000     0.0000 o          1 03J      -0.852300
      2 S7           4.3470    -1.4400     8.3290 ss         1 03J      -0.152800
      3 C11          1.2080     0.0000     0.0000 c          1 03J       0.890600
      4 C12          1.9610     0.0000     1.3060 c3         1 03J      -0.178400
      5 C13          0.9670     0.0000     2.4680 c3         1 03J      -0.031100
      6 C14          2.0640     1.1990     4.3700 ca         1 03J      -0.132000
      7 C15          2.7540    -1.2080     5.5650 ca         1 03J      -0.114000
      8 C16          3.1040    -0.0020     6.1720 ca         1 03J      -0.054000
      9 C17          2.7540     1.2060     5.5650 ca         1 03J      -0.114000
     10 C18          3.8420    -0.0020     7.4530 cc         1 03J       0.063900
     11 C19          4.2290     1.0980     8.1230 cd         1 03J      -0.165000
     12 C20          4.9110     0.8470     9.3070 cd         1 03J      -0.057000
     13 C21          5.4190     1.9300    10.1850 ca         1 03J       0.014000
     14 C22          6.0960     1.6170    11.3630 ca         1 03J      -0.121000
     15 C23          6.5660     2.6280    12.1750 ca         1 03J      -0.138000
     16 C24          6.3660     3.9510    11.8230 ca         1 03J      -0.138000
     17 C25          5.6930     4.2670    10.6570 ca         1 03J      -0.138000
     18 C26          5.2240     3.2640     9.8340 ca         1 03J      -0.121000
     19 C27          1.7200    -0.0010     3.7740 ca         1 03J      -0.039300
     20 C28          2.0640    -1.2000     4.3700 ca         1 03J      -0.132000
     21 C29          5.0760    -0.4590     9.5930 cc         1 03J      -0.092100
     22 H12          2.5840     0.8840     1.3630 hc         1 03J       0.032700
     23 H12A         2.5840    -0.8850     1.3630 hc         1 03J       0.032700
     24 H13          0.3440     0.8850     2.4110 hc         1 03J       0.057700
     25 H13A         0.3430    -0.8840     2.4100 hc         1 03J       0.057700
     26 H14          1.7920     2.1350     3.8980 ha         1 03J       0.138000
     27 H15          3.0230    -2.1480     6.0310 ha         1 03J       0.120500
     28 H17          3.0220     2.1460     6.0310 ha         1 03J       0.120500
     29 H19          4.0250     2.1010     7.7680 ha         1 03J       0.153000
     30 H22          6.3050     0.5820    11.6080 ha         1 03J       0.136000
     31 H23          7.0930     2.3850    13.0910 ha         1 03J       0.125000
     32 H24          6.7360     4.7410    12.4640 ha         1 03J       0.121000
     33 H25          5.5350     5.3050    10.3890 ha         1 03J       0.125000
     34 H26          4.7690     3.8040     9.0120 ha         1 03J       0.136000
     35 H28          1.7920    -2.1360     3.8980 ha         1 03J       0.138000
     36 H29          5.5810    -0.8470    10.4700 h4         1 03J       0.164000
     37 OXT          1.8800     0.0000    -1.1620 o          1 03J      -0.852300
@<TRIPOS>BOND
     1     1     3 1   
     2     2    10 1   
     3     2    21 1   
     4     3     4 1   
     5     4     5 1   
     6     4    22 1   
     7     4    23 1   
     8     5    19 1   
     9     5    24 1   
    10     5    25 1   
    11     6     9 ar  
    12     6    19 ar  
    13     6    26 1   
    14     7     8 ar  
    15     7    20 ar  
    16     7    27 1   
    17     8     9 ar  
    18     8    10 1   
    19     9    28 1   
    20    10    11 2   
    21    11    12 1   
    22    11    29 1   
    23    12    13 1   
    24    12    21 2   
    25    13    14 ar  
    26    13    18 ar  
    27    14    15 ar  
    28    14    30 1   
    29    15    16 ar  
    30    15    31 1   
    31    16    17 ar  
    32    16    32 1   
    33    17    18 ar  
    34    17    33 1   
    35    18    34 1   
    36    19    20 ar  
    37    20    35 1   
    38    21    36 1   
    39     3    37 1   
@<TRIPOS>SUBSTRUCTURE
     1 03J         1 TEMP              0 ****  ****    0 ROOT
