@<TRIPOS>MOLECULE
03K
   35    37     1     0     0
SMALL
bcc


@<TRIPOS>ATOM
      1 N1L         -0.2000     0.0510     0.1080 ns         1 03K      -0.505400
      2 N2A          5.3000     1.4860     5.0690 nz         1 03K      -0.763400
      3 N3K         -2.7680    -1.0230    -2.0320 na         1 03K       0.002400
      4 N4M         -2.3640    -0.5870    -0.8460 nc         1 03K      -0.543800
      5 OAB          3.5300     2.8740     5.5470 o          1 03K      -0.410100
      6 CAD          3.6880     0.3400     2.8890 ca         1 03K      -0.067000
      7 CAE          2.0950     2.1650     3.1380 ca         1 03K      -0.067000
      8 CAF          2.9940    -0.1040     1.7710 ca         1 03K      -0.093500
      9 CAG          1.4030     1.7120     2.0150 ca         1 03K      -0.093500
     10 CAH         -0.5480    -0.7790    -2.2850 cd         1 03K      -0.283300
     11 CAI         -0.8170    -2.4450    -4.9810 cx         1 03K      -0.110400
     12 CAJ         -1.0540    -1.0370    -5.4260 cx         1 03K      -0.110400
     13 CAO          1.1770     0.0810     0.0810 c          1 03K       0.663700
     14 CAP          3.2440     1.4820     3.5780 ca         1 03K      -0.200600
     15 CAQ          1.8490     0.5800     1.3320 ca         1 03K      -0.054600
     16 CAR         -0.9910    -0.4180    -0.9510 cd         1 03K       0.389200
     17 CAS         -1.7240    -1.1650    -2.9570 cc         1 03K      -0.040600
     18 CAT         -1.9090    -1.6280    -4.3270 cx         1 03K      -0.088400
     19 CAN          3.9090     2.0230     4.7560 c          1 03K       0.576700
     20 OAC          1.8750    -0.2640    -0.8880 o          1 03K      -0.557100
     21 HN1L        -0.6720     0.2800     0.9550 hn         1 03K       0.332500
     22 HN2A         5.9010     1.5800     4.2450 hn         1 03K       0.468800
     23 HN2B         5.7070     2.0120     5.8520 hn         1 03K       0.468800
     24 HAD          4.5720    -0.2300     3.2100 ha         1 03K       0.152500
     25 HAE          1.7430     3.0590     3.6820 ha         1 03K       0.152500
     26 HAF          3.3410    -0.9890     1.2070 ha         1 03K       0.184500
     27 HAG          0.5140     2.2690     1.6690 ha         1 03K       0.184500
     28 HAH          0.4680    -0.7580    -2.6640 ha         1 03K       0.193000
     29 HAI         -1.1140    -3.2810    -5.6400 hc         1 03K       0.082200
     30 HAIA         0.0920    -2.6780    -4.3990 hc         1 03K       0.082200
     31 HAJ         -1.5230    -0.8470    -6.4080 hc         1 03K       0.082200
     32 HAJA        -0.3140    -0.2600    -5.1610 hc         1 03K       0.082200
     33 HAT         -2.9590    -1.8850    -4.5790 hc         1 03K       0.091700
     34 HN3K        -3.7330    -1.2080    -2.1880 hn         1 03K       0.332700
     35 H2A3         5.2410     0.4960     5.3260 hn         1 03K       0.468800
@<TRIPOS>BOND
     1     1    13 1   
     2     1    16 1   
     3     1    21 1   
     4     2    19 1   
     5     2    22 1   
     6     2    23 1   
     7     2    35 1   
     8     3     4 1   
     9     3    17 1   
    10     3    34 1   
    11     4    16 2   
    12     5    19 2   
    13     6     8 ar  
    14     6    14 ar  
    15     6    24 1   
    16     7     9 ar  
    17     7    14 ar  
    18     7    25 1   
    19     8    15 ar  
    20     8    26 1   
    21     9    15 ar  
    22     9    27 1   
    23    10    16 1   
    24    10    17 2   
    25    10    28 1   
    26    11    12 1   
    27    11    18 1   
    28    11    29 1   
    29    11    30 1   
    30    12    18 1   
    31    12    31 1   
    32    12    32 1   
    33    13    15 1   
    34    13    20 2   
    35    14    19 1   
    36    17    18 1   
    37    18    33 1   
@<TRIPOS>SUBSTRUCTURE
     1 03K         1 TEMP              0 ****  ****    0 ROOT
