@<TRIPOS>MOLECULE
03K
   35    37     1     0     0
SMALL
bcc


@<TRIPOS>ATOM
      1 N1L          0.0000     0.0000     0.0000 ns         1 03K      -0.036400
      2 N2A          3.5400    -0.0000     6.1330 nz         1 03K       0.199600
      3 N3K         -2.3000    -0.0070    -2.7200 na         1 03K       0.474400
      4 N4M         -2.0050    -0.0050    -1.3500 nc         1 03K      -0.696800
      5 OAB          5.4290    -0.0080     4.9670 o          1 03K      -0.424100
      6 CAD          4.1730     0.0020     2.4760 ca         1 03K      -0.037500
      7 CAE          2.0780     0.0100     3.6840 ca         1 03K      -0.037500
      8 CAF          3.4830     0.0000     1.2820 ca         1 03K      -0.053500
      9 CAG          1.3890     0.0020     2.4900 ca         1 03K      -0.053500
     10 CAH         -0.1280    -0.0080    -2.4960 cd         1 03K      -0.315300
     11 CAI         -2.1230     0.4500    -5.8130 cx         1 03K      -0.072400
     12 CAJ         -2.0710    -1.0710    -5.6530 cx         1 03K      -0.072400
     13 CAO          1.3480     0.0000     0.0000 c          1 03K       0.548700
     14 CAP          3.4740     0.0030     3.6840 ca         1 03K      -0.230600
     15 CAQ          2.0880     0.0010     1.2820 ca         1 03K      -0.061600
     16 CAR         -0.6990    -0.0060    -1.2140 cd         1 03K       0.313200
     17 CAS         -1.1340    -0.0140    -3.3990 cc         1 03K      -0.189600
     18 CAT         -1.0420    -0.1920    -4.9400 cx         1 03K      -0.026400
     19 HN1L        -0.5000     0.0420     0.8660 hn         1 03K       0.164500
     20 HN2A         4.1900    -0.0040     6.8940 hn         1 03K       0.246467
     21 HN2B         2.9530     0.8080     6.2000 hn         1 03K       0.246467
     22 HAD          5.2560    -0.0010     2.4760 ha         1 03K       0.110000
     23 HAE          1.5370     0.0110     4.6220 ha         1 03K       0.110000
     24 HAF          4.0250    -0.0010     0.3440 ha         1 03K       0.142500
     25 HAG          0.3060     0.0050     2.4900 ha         1 03K       0.142500
     26 HAH          0.9310    -0.0120    -2.7220 ha         1 03K       0.184000
     27 HAI         -2.9220     0.9490    -5.2770 hc         1 03K       0.049200
     28 HAIA        -1.7870     0.8310    -6.7690 hc         1 03K       0.049200
     29 HAJ         -2.8370    -1.5010    -5.0190 hc         1 03K       0.049200
     30 HAJA        -1.7030    -1.6190    -6.5120 hc         1 03K       0.049200
     31 HAT         -0.0530    -0.2040    -5.3800 hc         1 03K       0.072700
     32 HN3K        -3.2160    -0.0080    -3.1240 hn         1 03K       0.155700
     33 H2A3         2.9580    -0.8120     6.1870 hn         1 03K       0.246467
     34 CAN          4.2140    -0.0020     4.9660 c          1 03K       0.356700
     35 OAC          1.9560    -0.0010    -1.0530 o          1 03K      -0.601100
@<TRIPOS>BOND
     1     1    13 1   
     2     1    16 1   
     3     1    19 1   
     4     2    20 1   
     5     2    21 1   
     6     2    33 1   
     7     2    34 1   
     8     3     4 1   
     9     3    17 1   
    10     3    32 1   
    11     4    16 2   
    12     5    34 2   
    13     6     8 ar  
    14     6    14 ar  
    15     6    22 1   
    16     7     9 ar  
    17     7    14 ar  
    18     7    23 1   
    19     8    15 ar  
    20     8    24 1   
    21     9    15 ar  
    22     9    25 1   
    23    10    16 1   
    24    10    17 2   
    25    10    26 1   
    26    11    12 1   
    27    11    18 1   
    28    11    27 1   
    29    11    28 1   
    30    12    18 1   
    31    12    29 1   
    32    12    30 1   
    33    13    15 1   
    34    13    35 2   
    35    14    34 1   
    36    17    18 1   
    37    18    31 1   
@<TRIPOS>SUBSTRUCTURE
     1 03K         1 TEMP              0 ****  ****    0 ROOT
