@<TRIPOS>MOLECULE
03L
   42    44     1     0     0
SMALL
bcc


@<TRIPOS>ATOM
      1 OAA          0.0000     0.0000     0.0000 o          1 03L      -0.869800
      2 OAB          0.1670     2.1220     0.8890 o          1 03L      -0.547100
      3 OAC          1.8880    -0.0010    -1.1680 o          1 03L      -0.869800
      4 CAF          3.5900    -0.9840     2.7390 ca         1 03L      -0.113000
      5 CAG          3.3500     0.0000     3.6820 ca         1 03L      -0.155000
      6 CAH         -1.1110     6.3810     6.1880 ca         1 03L      -0.083000
      7 CAI         -0.1620     6.7210     5.2410 ca         1 03L      -0.112000
      8 CAJ         -1.9010     5.2630     6.0050 ca         1 03L      -0.134000
      9 CAK          2.9010    -0.9880     1.5410 ca         1 03L      -0.089000
     10 CAL          2.4130     0.9870     3.4400 ca         1 03L      -0.113000
     11 CAM         -4.5980     2.3710     8.1380 ca         1 03L      -0.123000
     12 CAN         -5.8170     4.1030     7.0130 ca         1 03L      -0.121000
     13 CAO         -3.7120     2.3030     7.0820 ca         1 03L      -0.017000
     14 CAP         -4.9370     4.0370     5.9510 ca         1 03L       0.006400
     15 CAQ         -0.6130     3.9770     2.6840 c3         1 03L       0.096300
     16 NAR          0.3800     2.9320     2.9450 ns         1 03L      -0.243900
     17 CAT          1.2150     0.0000     0.0000 c          1 03L       0.972200
     18 CAU          0.7020     2.0520     1.9780 c          1 03L       0.576700
     19 CAV         -5.6520     3.2690     8.1040 ca         1 03L      -0.002600
     20 CAW         -0.0010     5.9440     4.1070 ca         1 03L      -0.019600
     21 CAX         -3.8780     3.1360     5.9830 ca         1 03L       0.005900
     22 CAY         -1.7420     4.4790     4.8680 ca         1 03L       0.076900
     23 CAZ          1.9540    -0.0010     1.2800 ca         1 03L      -0.010600
     24 CBA          1.7050     0.9960     2.2420 ca         1 03L      -0.135600
     25 CBB         -0.7880     4.8240     3.9190 ca         1 03L      -0.067300
     26 HAF          4.3260    -1.7530     2.9390 ha         1 03L       0.081000
     27 HAG          3.8980    -0.0050     4.6170 ha         1 03L       0.082000
     28 HAH         -1.2350     6.9920     7.0740 ha         1 03L       0.101000
     29 HAI          0.4560     7.5990     5.3870 ha         1 03L       0.111000
     30 HAJ         -2.6450     4.9970     6.7470 ha         1 03L       0.117000
     31 HAK          3.0940    -1.7610     0.8070 ha         1 03L       0.116000
     32 HAL          2.2310     1.7540     4.1820 ha         1 03L       0.084000
     33 HAM         -4.4690     1.7220     8.9960 ha         1 03L       0.119000
     34 HAN         -6.6410     4.8060     6.9900 ha         1 03L       0.126000
     35 HAO         -2.8880     1.6000     7.1110 ha         1 03L       0.130000
     36 HAQ         -0.2760     4.5990     1.8640 h1         1 03L       0.043700
     37 HAQA        -1.5600     3.5180     2.4240 h1         1 03L       0.043700
     38 HNAR         0.7960     2.8530     3.8520 hn         1 03L       0.174500
     39 SAS         -2.7480     3.0530     4.6340 ss         1 03L      -0.237800
     40 ClAF        -5.1530     5.0740     4.5750 cl         1 03L       0.027600
     41 ClAE         1.1910     6.3750     2.9210 cl         1 03L       0.001600
     42 ClAD        -6.7680     3.3450     9.4320 cl         1 03L      -0.027400
@<TRIPOS>BOND
     1     1    17 1   
     2     2    18 2   
     3     3    17 1   
     4     4     5 ar  
     5     4     9 ar  
     6     4    26 1   
     7     5    10 ar  
     8     5    27 1   
     9     6     7 ar  
    10     6     8 ar  
    11     6    28 1   
    12     7    20 ar  
    13     7    29 1   
    14     8    22 ar  
    15     8    30 1   
    16     9    23 ar  
    17     9    31 1   
    18    10    24 ar  
    19    10    32 1   
    20    11    13 ar  
    21    11    19 ar  
    22    11    33 1   
    23    12    14 ar  
    24    12    19 ar  
    25    12    34 1   
    26    13    21 ar  
    27    13    35 1   
    28    14    21 ar  
    29    14    40 1   
    30    15    16 1   
    31    15    25 1   
    32    15    36 1   
    33    15    37 1   
    34    16    18 1   
    35    16    38 1   
    36    17    23 1   
    37    18    24 1   
    38    19    42 1   
    39    20    25 ar  
    40    20    41 1   
    41    21    39 1   
    42    22    25 ar  
    43    22    39 1   
    44    23    24 ar  
@<TRIPOS>SUBSTRUCTURE
     1 03L         1 TEMP              0 ****  ****    0 ROOT
