@<TRIPOS>MOLECULE
molecule
   42    44     1     0     0
SMALL
bcc


@<TRIPOS>ATOM
      1 OAA          0.0000     0.0000     0.0000 o          1 03L      -0.818300
      2 OAB          0.1670     2.1220     0.8890 o          1 03L      -0.521100
      3 OAC          1.8880    -0.0010    -1.1680 o          1 03L      -0.818300
      4 CAF          3.5900    -0.9840     2.7390 ca         1 03L      -0.133000
      5 CAG          3.3500     0.0000     3.6820 ca         1 03L      -0.176000
      6 CAH         -1.1110     6.3810     6.1880 ca         1 03L      -0.110000
      7 CAI         -0.1620     6.7210     5.2410 ca         1 03L      -0.139000
      8 CAJ         -1.9010     5.2630     6.0050 ca         1 03L      -0.148000
      9 CAK          2.9010    -0.9880     1.5410 ca         1 03L      -0.118000
     10 CAL          2.4130     0.9870     3.4400 ca         1 03L      -0.127000
     11 CAM         -4.5980     2.3710     8.1380 ca         1 03L      -0.140000
     12 CAN         -5.8170     4.1030     7.0130 ca         1 03L      -0.135000
     13 CAO         -3.7120     2.3030     7.0820 ca         1 03L      -0.058000
     14 CAP         -4.9370     4.0370     5.9510 ca         1 03L       0.070400
     15 CAQ         -0.6130     3.9770     2.6840 c3         1 03L       0.156300
     16 NAR          0.3800     2.9320     2.9450 ns         1 03L      -0.604900
     17 CAT          1.2150     0.0000     0.0000 c          1 03L       0.884200
     18 CAU          0.7020     2.0520     1.9780 c          1 03L       0.657700
     19 CAV         -5.6520     3.2690     8.1040 ca         1 03L       0.054400
     20 CAW         -0.0010     5.9440     4.1070 ca         1 03L       0.050400
     21 CAX         -3.8780     3.1360     5.9830 ca         1 03L      -0.029100
     22 CAY         -1.7420     4.4790     4.8680 ca         1 03L       0.032900
     23 CAZ          1.9540    -0.0010     1.2800 ca         1 03L      -0.021600
     24 CBA          1.7050     0.9960     2.2420 ca         1 03L      -0.133600
     25 CBB         -0.7880     4.8240     3.9190 ca         1 03L      -0.079300
     26 HAF          4.3260    -1.7530     2.9390 ha         1 03L       0.105000
     27 HAG          3.8980    -0.0050     4.6170 ha         1 03L       0.103000
     28 HAH         -1.2350     6.9920     7.0740 ha         1 03L       0.130000
     29 HAI          0.4560     7.5990     5.3870 ha         1 03L       0.138000
     30 HAJ         -2.6450     4.9970     6.7470 ha         1 03L       0.134000
     31 HAK          3.0940    -1.7610     0.8070 ha         1 03L       0.144000
     32 HAL          2.2310     1.7540     4.1820 ha         1 03L       0.101000
     33 HAM         -4.4690     1.7220     8.9960 ha         1 03L       0.149000
     34 HAN         -6.6410     4.8060     6.9900 ha         1 03L       0.156000
     35 HAO         -2.8880     1.6000     7.1110 ha         1 03L       0.163000
     36 HAQ         -0.2760     4.5990     1.8640 h1         1 03L       0.069700
     37 HAQA        -1.5600     3.5180     2.4240 h1         1 03L       0.069700
     38 HNAR         0.7960     2.8530     3.8520 hn         1 03L       0.305500
     39 SAS         -2.7480     3.0530     4.6340 ss         1 03L      -0.106800
     40 ClAF        -5.1530     5.0740     4.5750 cl         1 03L      -0.067400
     41 ClAE         1.1910     6.3750     2.9210 cl         1 03L      -0.088400
     42 ClAD        -6.7680     3.3450     9.4320 cl         1 03L      -0.105400
@<TRIPOS>BOND
     1     1    17 1   
     2     2    18 2   
     3     3    17 1   
     4    19    42 1   
     5    20    41 1   
     6     5     4 ar  
     7     9     4 ar  
     8     4    26 1   
     9    14    40 1   
    10    10     5 ar  
    11     5    27 1   
    12     6     7 ar  
    13     6     8 ar  
    14     6    28 1   
    15     7    20 ar  
    16     7    29 1   
    17     8    22 ar  
    18     8    30 1   
    19    23     9 ar  
    20     9    31 1   
    21    24    10 ar  
    22    10    32 1   
    23    13    11 ar  
    24    11    19 ar  
    25    11    33 1   
    26    14    12 ar  
    27    19    12 ar  
    28    12    34 1   
    29    13    21 ar  
    30    13    35 1   
    31    21    14 ar  
    32    25    15 1   
    33    15    16 1   
    34    15    36 1   
    35    15    37 1   
    36    16    18 1   
    37    16    38 1   
    38    22    39 1   
    39    39    21 1   
    40    17    23 1   
    41    18    24 1   
    42    20    25 ar  
    43    22    25 ar  
    44    24    23 ar  
@<TRIPOS>SUBSTRUCTURE
     1 03L         1 TEMP              0 ****  ****    0 ROOT
