@<TRIPOS>MOLECULE
molecule
   43    45     1     0     0
SMALL
bcc


@<TRIPOS>ATOM
      1 OAA          0.0000     0.0000     0.0000 o          1 03L      -0.516300
      2 OAB          0.6880     2.8160     1.1610 o          1 03L      -0.492100
      3 OAC          1.9190    -0.0100    -1.1140 o          1 03L      -0.516300
      4 CAF          3.7540    -0.9330     2.7200 ca         1 03L      -0.114000
      5 CAG          3.4770     0.0000     3.7080 ca         1 03L      -0.113000
      6 CAH         -1.9290     5.1990     6.7440 ca         1 03L      -0.105000
      7 CAI         -0.6960     5.1650     6.1300 ca         1 03L      -0.132000
      8 CAJ         -3.0130     4.5640     6.1570 ca         1 03L      -0.135000
      9 CAK          3.0440    -0.9290     1.5260 ca         1 03L      -0.055000
     10 CAL          2.4780     0.9400     3.5010 ca         1 03L      -0.053000
     11 CAM         -6.5450     1.5990     7.1860 ca         1 03L      -0.142000
     12 CAN         -4.6710     0.1290     6.8580 ca         1 03L      -0.139000
     13 CAO         -6.0850     2.4220     6.1770 ca         1 03L      -0.063000
     14 CAP         -4.2170     0.9530     5.8500 ca         1 03L       0.066400
     15 CAQ         -1.4330     3.1300     3.0350 c3         1 03L       0.202100
     16 NAR         -0.3780     2.1200     3.1120 ny         1 03L      -0.917800
     17 CAT          1.2740     0.0000     0.0000 c          1 03L       0.906200
     18 CAU          0.6570     2.0310     2.1320 c          1 03L       0.623700
     19 CAV         -5.8370     0.4550     7.5240 ca         1 03L       0.049400
     20 CAW         -0.5430     4.4970     4.9290 ca         1 03L       0.033400
     21 CAX         -4.9240     2.0860     5.5100 ca         1 03L      -0.065100
     22 CAY         -2.8600     3.8970     4.9510 ca         1 03L       0.001900
     23 CAZ          2.0460     0.0100     1.3180 ca         1 03L      -0.145600
     24 CBA          1.7650     0.9450     2.3100 ca         1 03L      -0.139600
     25 CBB         -1.6250     3.8640     4.3310 ca         1 03L      -0.112300
     26 ClAE         0.9600     4.4670     4.1880 cl         1 03L      -0.086400
     27 ClAD        -6.4080    -0.5640     8.7760 cl         1 03L      -0.075400
     28 SAS         -4.2710     3.0870     4.2240 ss         1 03L      -0.089800
     29 ClAF        -2.7780     0.5990     4.9780 cl         1 03L      -0.055400
     30 HAF          4.5340    -1.6690     2.8780 ha         1 03L       0.147000
     31 HAG          4.1150     0.0700     4.5810 ha         1 03L       0.147000
     32 HAH         -2.0520     5.7200     7.6860 ha         1 03L       0.139000
     33 HAI          0.1520     5.6610     6.5880 ha         1 03L       0.149000
     34 HAJ         -3.9850     4.6050     6.6330 ha         1 03L       0.139000
     35 HAK          3.2670    -1.6610     0.7600 ha         1 03L       0.161000
     36 HAL          2.2810     1.6950     4.2530 ha         1 03L       0.162000
     37 HAM         -7.4550     1.8500     7.7180 ha         1 03L       0.156000
     38 HAN         -4.0410    -0.6720     7.2270 ha         1 03L       0.166000
     39 HAO         -6.6340     3.3150     5.9050 ha         1 03L       0.157000
     40 HAQ         -1.1770     3.8460     2.2630 hx         1 03L       0.065700
     41 HAQA        -2.3640     2.6450     2.7670 hx         1 03L       0.065700
     42 HNAR        -0.8380     1.2310     3.1180 hn         1 03L       0.363800
     43 HAR2         0.0780     2.2530     3.9930 hn         1 03L       0.363800
@<TRIPOS>BOND
     1     1    17 1   
     2     2    18 2   
     3     3    17 1   
     4    19    27 1   
     5    20    26 1   
     6     5     4 ar  
     7     9     4 ar  
     8     4    30 1   
     9    14    29 1   
    10    10     5 ar  
    11     5    31 1   
    12     6     7 ar  
    13     6     8 ar  
    14     6    32 1   
    15     7    20 ar  
    16     7    33 1   
    17     8    22 ar  
    18     8    34 1   
    19    23     9 ar  
    20     9    35 1   
    21    24    10 ar  
    22    10    36 1   
    23    13    11 ar  
    24    11    19 ar  
    25    11    37 1   
    26    14    12 ar  
    27    19    12 ar  
    28    12    38 1   
    29    13    21 ar  
    30    13    39 1   
    31    21    14 ar  
    32    25    15 1   
    33    15    16 1   
    34    15    40 1   
    35    15    41 1   
    36    16    18 1   
    37    16    42 1   
    38    22    28 1   
    39    28    21 1   
    40    17    23 1   
    41    18    24 1   
    42    20    25 ar  
    43    22    25 ar  
    44    24    23 ar  
    45    43    16 1   
@<TRIPOS>SUBSTRUCTURE
     1 03L         1 TEMP              0 ****  ****    0 ROOT
