@<TRIPOS>MOLECULE
03M
   42    45     1     0     0
SMALL
bcc


@<TRIPOS>ATOM
      1 C4          -0.0070     0.6490     0.2680 ca         1 03M      -0.084000
      2 C6           3.3020    -0.5360    -0.7930 cc         1 03M      -0.061100
      3 C7           2.0480    -0.0500    -1.1960 cd         1 03M      -0.138200
      4 C8           1.2820     0.1810     0.0170 ca         1 03M      -0.071800
      5 C10          1.5570     0.1640    -2.5170 cf         1 03M      -0.009000
      6 N12          3.7200     0.3770    -3.7600 ns         1 03M      -0.428100
      7 C13          4.0260     0.7420    -5.1140 c          1 03M       0.784500
      8 C15          1.7130     0.5520    -5.0050 c          1 03M       0.713700
      9 C20          1.4680    -1.1220    -8.0320 ca         1 03M      -0.102000
     10 C21          1.3600    -2.3210    -8.7270 ca         1 03M      -0.147000
     11 C22          2.4700    -2.8330    -9.4200 ca         1 03M       0.101900
     12 C24          3.7910    -0.9110    -8.6900 ca         1 03M      -0.121000
     13 C1          -0.4370     0.7570     1.5800 ca         1 03M      -0.136000
     14 C2           0.4090     0.4050     2.6520 ca         1 03M       0.027400
     15 C3           1.7100    -0.0680     2.4590 ca         1 03M      -0.072300
     16 N5           3.3640    -0.6060     0.5930 na         1 03M      -0.178400
     17 C9           2.1390    -0.1780     1.1220 ca         1 03M      -0.046200
     18 C11          2.2990     0.3620    -3.6250 cc         1 03M      -0.134600
     19 N14          2.8110     0.8100    -5.8650 n          1 03M      -0.511400
     20 O17          0.5270     0.5160    -5.3410 o          1 03M      -0.582500
     21 C18          2.7600     0.9030    -7.2960 c3         1 03M       0.158300
     22 C19          2.6750    -0.4140    -8.0170 ca         1 03M      -0.116300
     23 C23          3.6990    -2.1200    -9.4000 ca         1 03M       0.086900
     24 F25          4.7750    -2.6050   -10.0610 f          1 03M      -0.125900
     25 C27          2.5800    -0.4300     3.5990 c3         1 03M      -0.049800
     26 Cl          -0.2070     0.5730     4.2320 cl         1 03M      -0.093400
     27 H4          -0.6690     0.9250    -0.5660 ha         1 03M       0.144000
     28 H6           4.1470    -0.8710    -1.4010 h4         1 03M       0.181000
     29 H10          0.4550     0.1800    -2.6300 ha         1 03M       0.163000
     30 H20          0.5980    -0.7230    -7.4810 ha         1 03M       0.163000
     31 H21          0.4130    -2.8800    -8.7420 ha         1 03M       0.157000
     32 H24          4.7500    -0.3700    -8.6720 ha         1 03M       0.163000
     33 H1          -1.4530     1.1230     1.7960 ha         1 03M       0.150000
     34 H18          3.6840     1.4590    -7.6320 h1         1 03M       0.080700
     35 H18A         1.8450     1.5130    -7.5580 h1         1 03M       0.080700
     36 H27          3.5860    -0.7830     3.2710 hc         1 03M       0.050033
     37 H27A         2.1040    -1.2460     4.2020 hc         1 03M       0.050033
     38 H27B         2.7250     0.4550     4.2700 hc         1 03M       0.050033
     39 HN5          4.1200    -0.9560     1.1210 hn         1 03M       0.307700
     40 H14          4.2560     0.8050    -3.0380 hn         1 03M       0.319500
     41 O16          5.1640     0.9430    -5.5610 o          1 03M      -0.599500
     42 F26          2.3740    -3.9970   -10.1010 f          1 03M      -0.124900
@<TRIPOS>BOND
     1     1     4 ar  
     2     1    13 ar  
     3     1    27 1   
     4     2     3 2   
     5     2    16 1   
     6     2    28 1   
     7     3     4 1   
     8     3     5 1   
     9     4    17 ar  
    10     5    18 2   
    11     5    29 1   
    12     6     7 1   
    13     6    18 1   
    14     6    40 1   
    15     7    19 1   
    16     7    41 2   
    17     8    18 1   
    18     8    19 1   
    19     8    20 2   
    20     9    10 ar  
    21     9    22 ar  
    22     9    30 1   
    23    10    11 ar  
    24    10    31 1   
    25    11    23 ar  
    26    11    42 1   
    27    12    22 ar  
    28    12    23 ar  
    29    12    32 1   
    30    13    14 ar  
    31    13    33 1   
    32    14    15 ar  
    33    14    26 1   
    34    15    17 ar  
    35    15    25 1   
    36    16    17 1   
    37    16    39 1   
    38    19    21 1   
    39    21    22 1   
    40    21    34 1   
    41    21    35 1   
    42    23    24 1   
    43    25    36 1   
    44    25    37 1   
    45    25    38 1   
@<TRIPOS>SUBSTRUCTURE
     1 03M         1 TEMP              0 ****  ****    0 ROOT
