@<TRIPOS>MOLECULE
03M
   42    45     1     0     0
SMALL
bcc


@<TRIPOS>ATOM
      1 C4           0.0000     0.0000     0.0000 ca         1 03M      -0.042000
      2 C6           3.6280     0.0000    -0.4330 cc         1 03M      -0.270100
      3 C7           2.4150    -0.0000    -1.0630 cd         1 03M      -0.143200
      4 C8           1.3930     0.0000     0.0000 ca         1 03M      -0.070800
      5 C10          2.1780     0.0010    -2.5070 cf         1 03M       0.068000
      6 N12          4.4390    -0.8670    -3.0210 ns         1 03M      -0.065100
      7 C13          5.1120    -1.0770    -4.1670 c          1 03M       0.607500
      8 C15          3.1630    -0.2630    -4.7790 c          1 03M       0.644700
      9 C20          5.2530    -3.2210    -7.0780 ca         1 03M      -0.064000
     10 C21          4.8970    -4.4620    -7.5720 ca         1 03M      -0.116000
     11 C22          3.6590    -4.6420    -8.1640 ca         1 03M       0.087900
     12 C24          3.1320    -2.3380    -7.7570 ca         1 03M      -0.090000
     13 C1          -0.6820    -0.0000     1.1980 ca         1 03M      -0.111000
     14 C2           0.0130    -0.0050     2.3990 ca         1 03M      -0.020600
     15 C3           1.3920    -0.0110     2.4130 ca         1 03M      -0.076300
     16 N5           3.4440     0.0010     0.9120 na         1 03M       0.395600
     17 C9           2.0980     0.0000     1.2140 ca         1 03M      -0.227200
     18 C11          3.1800    -0.3480    -3.3600 cc         1 03M      -0.292600
     19 N14          4.3520    -0.7210    -5.2170 n          1 03M      -0.133400
     20 O17          2.2440     0.1400    -5.4700 o          1 03M      -0.629500
     21 C18          4.7570    -0.8110    -6.6220 c3         1 03M       0.129300
     22 C19          4.3720    -2.1600    -7.1700 ca         1 03M      -0.125300
     23 C23          2.7770    -3.5760    -8.2620 ca         1 03M       0.075900
     24 F25          1.5660    -3.7510    -8.8350 f          1 03M      -0.115900
     25 C27          2.1340    -0.0160     3.7240 c3         1 03M       0.047200
     26 Cl          -0.8610    -0.0040     3.8990 cl         1 03M      -0.018400
     27 H4          -0.5450     0.0040    -0.9360 ha         1 03M       0.110000
     28 H6           4.5900     0.0030    -0.9310 h4         1 03M       0.151000
     29 H10          1.2470     0.3920    -2.8990 ha         1 03M       0.130000
     30 H20          6.2230    -3.0810    -6.6170 ha         1 03M       0.129000
     31 H21          5.5870    -5.2930    -7.4970 ha         1 03M       0.125000
     32 H24          2.4430    -1.5050    -7.8300 ha         1 03M       0.139000
     33 H1          -1.7650     0.0050     1.2020 ha         1 03M       0.118000
     34 H18          4.2610    -0.0340    -7.1910 h1         1 03M       0.044700
     35 H18A         5.8300    -0.6840    -6.6970 h1         1 03M       0.044700
     36 H27          2.8920    -0.7900     3.7080 hc         1 03M       0.014367
     37 H27A         2.6050     0.9480     3.8770 hc         1 03M       0.014367
     38 H27B         1.4380    -0.2090     4.5320 hc         1 03M       0.014367
     39 HN5          4.1810     0.0010     1.5890 hn         1 03M       0.118700
     40 H14          4.7740    -1.0480    -2.0950 hn         1 03M       0.211500
     41 O16          6.2410    -1.5230    -4.2430 o          1 03M      -0.696500
     42 F26          3.3110    -5.8550    -8.6470 f          1 03M      -0.116900
@<TRIPOS>BOND
     1     1     4 ar  
     2     1    13 ar  
     3     1    27 1   
     4     2     3 2   
     5     2    16 1   
     6     2    28 1   
     7     3     4 1   
     8     3     5 1   
     9     4    17 ar  
    10     5    18 2   
    11     5    29 1   
    12     6     7 1   
    13     6    18 1   
    14     6    40 1   
    15     7    19 1   
    16     7    41 2   
    17     8    18 1   
    18     8    19 1   
    19     8    20 2   
    20     9    10 ar  
    21     9    22 ar  
    22     9    30 1   
    23    10    11 ar  
    24    10    31 1   
    25    11    23 ar  
    26    11    42 1   
    27    12    22 ar  
    28    12    23 ar  
    29    12    32 1   
    30    13    14 ar  
    31    13    33 1   
    32    14    15 ar  
    33    14    26 1   
    34    15    17 ar  
    35    15    25 1   
    36    16    17 1   
    37    16    39 1   
    38    19    21 1   
    39    21    22 1   
    40    21    34 1   
    41    21    35 1   
    42    23    24 1   
    43    25    36 1   
    44    25    37 1   
    45    25    38 1   
@<TRIPOS>SUBSTRUCTURE
     1 03M         1 TEMP              0 ****  ****    0 ROOT
