@<TRIPOS>MOLECULE
03N
   29    29     1     0     0
SMALL
bcc


@<TRIPOS>ATOM
      1 N24          0.0000     0.0000     0.0000 nz         1 03N       0.083400
      2 C25          1.4690     0.0000     0.0000 c3         1 03N      -0.042200
      3 C26          1.9800     0.0000     1.4420 c3         1 03N      -0.071700
      4 C27          1.5730     1.3070     2.1260 c3         1 03N      -0.038400
      5 C28          2.0560     1.2890     3.5800 c3         1 03N       0.182800
      6 N29          3.5010     1.0220     3.5960 nh         1 03N      -0.427600
      7 C30          4.0090    -0.1610     2.8890 c3         1 03N       0.182800
      8 C31          3.5040    -0.1260     1.4430 c3         1 03N      -0.038400
      9 C32          4.3610     1.8670     4.2590 c2         1 03N       0.275100
     10 N33          5.6950     1.5460     4.3610 nz         1 03N       0.118400
     11 N34          3.9130     2.9700     4.7890 n2         1 03N      -0.571100
     12 HN24        -0.3340    -0.3570    -0.8740 hn         1 03N       0.231800
     13 H125         1.8300     0.8840    -0.5110 hx         1 03N       0.091700
     14 H225         1.8300    -0.8840    -0.5110 hx         1 03N       0.091700
     15 H26          1.5500    -0.8360     1.9810 hc         1 03N       0.055700
     16 H127         2.0270     2.1420     1.6070 hc         1 03N       0.039950
     17 H227         0.4950     1.4050     2.1060 hc         1 03N       0.039950
     18 H128         1.5380     0.5080     4.1240 h1         1 03N       0.045950
     19 H228         1.8600     2.2500     4.0390 h1         1 03N       0.045950
     20 H130         5.0920    -0.1490     2.8950 h1         1 03N       0.045950
     21 H230         3.6470    -1.0570     3.3780 h1         1 03N       0.045950
     22 H131         3.7900    -1.0420     0.9400 hc         1 03N       0.039950
     23 H231         3.9370     0.7240     0.9300 hc         1 03N       0.039950
     24 H133         5.7890     0.6090     4.6980 hn         1 03N       0.235467
     25 H233         6.1260     1.6210     3.4610 hn         1 03N       0.235467
     26 H134         4.5390     3.5840     5.2710 hn         1 03N       0.362400
     27 H2          -0.3340    -0.5780     0.7460 hn         1 03N       0.231800
     28 H243        -0.3340     0.9350     0.1280 hn         1 03N       0.231800
     29 H333         6.1390     2.1670     5.0080 hn         1 03N       0.235467
@<TRIPOS>BOND
     1     1     2 1   
     2     1    12 1   
     3     1    27 1   
     4     1    28 1   
     5     2     3 1   
     6     2    13 1   
     7     2    14 1   
     8     3     4 1   
     9     3     8 1   
    10     3    15 1   
    11     4     5 1   
    12     4    16 1   
    13     4    17 1   
    14     5     6 1   
    15     5    18 1   
    16     5    19 1   
    17     6     7 1   
    18     6     9 1   
    19     7     8 1   
    20     7    20 1   
    21     7    21 1   
    22     8    22 1   
    23     8    23 1   
    24     9    10 1   
    25     9    11 2   
    26    10    24 1   
    27    10    25 1   
    28    10    29 1   
    29    11    26 1   
@<TRIPOS>SUBSTRUCTURE
     1 03N         1 TEMP              0 ****  ****    0 ROOT
