@<TRIPOS>MOLECULE
03N
   29    29     1     0     0
SMALL
bcc


@<TRIPOS>ATOM
      1 N24          0.2380     0.3090    -0.0710 nz         1 03N      -0.838600
      2 C25          1.6640    -0.1230    -0.0230 c3         1 03N       0.103800
      3 C26          2.2710    -0.1940     1.3740 c3         1 03N      -0.107700
      4 C27          1.5980    -1.2150     2.2760 c3         1 03N      -0.090400
      5 C28          2.3680    -1.3350     3.5930 c3         1 03N       0.162800
      6 N29          2.5380    -0.0410     4.2640 nh         1 03N      -0.701600
      7 C30          3.0860     1.0140     3.4020 c3         1 03N       0.162800
      8 C31          2.3190     1.1480     2.0840 c3         1 03N      -0.090400
      9 C32          3.2970    -0.1720     5.4930 c2         1 03N       0.697100
     10 N33          2.4020     0.1990     6.6940 nz         1 03N      -0.871600
     11 N34          4.5130    -0.5350     5.5990 n2         1 03N      -0.678100
     12 HN24        -0.3500    -0.3430     0.4610 hn         1 03N       0.467467
     13 H125         1.7240    -1.1430    -0.5070 hx         1 03N       0.125700
     14 H225         2.2590     0.6090    -0.6490 hx         1 03N       0.125700
     15 H26          3.3390    -0.5350     1.1960 hc         1 03N       0.118700
     16 H127         1.5920    -2.2280     1.7930 hc         1 03N       0.068700
     17 H227         0.5360    -0.9220     2.4860 hc         1 03N       0.068700
     18 H128         1.7890    -2.0050     4.2900 h1         1 03N       0.078700
     19 H228         3.3640    -1.8250     3.3790 h1         1 03N       0.078700
     20 H130         3.0080     1.9870     3.9650 h1         1 03N       0.078700
     21 H230         4.1740     0.8300     3.1630 h1         1 03N       0.078700
     22 H131         2.8550     1.9100     1.4570 hc         1 03N       0.068700
     23 H231         1.2840     1.5290     2.2870 hc         1 03N       0.068700
     24 H133         1.5870    -0.4220     6.7180 hn         1 03N       0.468133
     25 H233         2.9110     0.1160     7.5790 hn         1 03N       0.468133
     26 H134         5.0020    -0.6140     6.4660 hn         1 03N       0.484400
     27 H2           0.1350     1.2470     0.3310 hn         1 03N       0.467467
     28 H243        -0.0860     0.3280    -1.0460 hn         1 03N       0.467467
     29 H333         2.0720     1.1650     6.5890 hn         1 03N       0.468133
@<TRIPOS>BOND
     1     1     2 1   
     2     1    12 1   
     3     1    27 1   
     4     1    28 1   
     5     2     3 1   
     6     2    13 1   
     7     2    14 1   
     8     3     4 1   
     9     3     8 1   
    10     3    15 1   
    11     4     5 1   
    12     4    16 1   
    13     4    17 1   
    14     5     6 1   
    15     5    18 1   
    16     5    19 1   
    17     6     7 1   
    18     6     9 1   
    19     7     8 1   
    20     7    20 1   
    21     7    21 1   
    22     8    22 1   
    23     8    23 1   
    24     9    10 1   
    25     9    11 2   
    26    10    24 1   
    27    10    25 1   
    28    10    29 1   
    29    11    26 1   
@<TRIPOS>SUBSTRUCTURE
     1 03N         1 TEMP              0 ****  ****    0 ROOT
