@<TRIPOS>MOLECULE
03O
   42    44     1     0     0
SMALL
bcc


@<TRIPOS>ATOM
      1 N1           0.0000     0.0000     0.0000 nc         1 03O      -0.391300
      2 C2           1.3160     0.0000     0.0000 cd         1 03O      -0.142200
      3 NA2          1.9850     0.0020    -1.1980 nz         1 03O       0.260400
      4 N3           2.0290     0.0000     1.1590 ns         1 03O       0.051600
      5 C4           1.3900    -0.0050     2.3490 c          1 03O       0.596700
      6 O4           2.0210    -0.0080     3.3970 o          1 03O      -0.652500
      7 C4A         -0.0080    -0.0060     2.3560 cd         1 03O      -0.067200
      8 N5          -0.7250    -0.0130     3.5730 nh         1 03O      -0.186400
      9 C6          -2.1540     0.3410     3.5480 c3         1 03O       0.063500
     10 C7          -2.8010    -0.3790     2.3550 c3         1 03O       0.113800
     11 N8          -2.0750     0.0030     1.1360 nu         1 03O      -0.322000
     12 C8A         -0.6890    -0.0010     1.1470 cc         1 03O       0.077600
     13 C9          -2.3090     1.8540     3.3860 c3         1 03O       0.160800
     14 N10         -1.5610     2.5390     4.4420 nu         1 03O      -0.473600
     15 C11         -0.0630    -0.3640     4.8310 c3         1 03O       0.163100
     16 C12         -1.5360     6.6910     4.6170 ca         1 03O      -0.128600
     17 C13         -0.8300     5.9460     5.5660 ca         1 03O      -0.030500
     18 C14         -0.8400     4.5760     5.5060 ca         1 03O      -0.208500
     19 C15         -1.5520     3.9270     4.5010 ca         1 03O       0.008600
     20 C16         -2.2560     4.6670     3.5550 ca         1 03O      -0.208500
     21 C17         -2.2500     6.0360     3.6090 ca         1 03O      -0.030500
     22 O           -2.2120     8.8810     3.7670 o          1 03O      -0.879300
     23 HN21         2.5530     0.8250    -1.2610 hn         1 03O       0.198800
     24 HN22         2.5670    -0.8100    -1.2560 hn         1 03O       0.198800
     25 HN3          3.0290     0.0000     1.1290 hn         1 03O       0.177500
     26 H6          -2.6260     0.0170     4.4670 h1         1 03O       0.065700
     27 H71         -3.7370     0.1410     2.1910 h1         1 03O       0.049700
     28 H72         -3.1270    -1.2110     2.9670 h1         1 03O       0.049700
     29 HN8         -2.5750     0.2630     0.3080 hn         1 03O       0.309800
     30 H91         -3.3570     2.1190     3.4560 h1         1 03O       0.025700
     31 H92         -1.9250     2.1550     2.4180 h1         1 03O       0.025700
     32 HN1         -1.0920     2.0060     5.1480 hn         1 03O       0.282800
     33 H111         0.6680     0.3960     5.0800 h1         1 03O       0.040033
     34 H112        -0.8000    -0.4290     5.6220 h1         1 03O       0.040033
     35 H113         0.4340    -1.3210     4.7220 h1         1 03O       0.040033
     36 H13         -0.2760     6.4500     6.3480 ha         1 03O       0.127000
     37 H14         -0.2930     3.9980     6.2410 ha         1 03O       0.087000
     38 H16         -2.8100     4.1590     2.7740 ha         1 03O       0.087000
     39 H17         -2.7980     6.6100     2.8720 ha         1 03O       0.127000
     40 OXT         -0.9150     8.7300     5.5620 o          1 03O      -0.879300
     41 HA23         1.3250    -0.0060    -1.9490 hn         1 03O       0.198800
     42 C           -1.5320     8.1640     4.6830 c          1 03O       0.972200
@<TRIPOS>BOND
     1     1     2 2   
     2     1    12 1   
     3     2     3 1   
     4     2     4 1   
     5     3    23 1   
     6     3    24 1   
     7     3    41 1   
     8     4     5 1   
     9     4    25 1   
    10     5     6 2   
    11     5     7 1   
    12     7     8 1   
    13     7    12 2   
    14     8     9 1   
    15     8    15 1   
    16     9    10 1   
    17     9    13 1   
    18     9    26 1   
    19    10    11 1   
    20    10    27 1   
    21    10    28 1   
    22    11    12 1   
    23    11    29 1   
    24    13    14 1   
    25    13    30 1   
    26    13    31 1   
    27    14    19 1   
    28    14    32 1   
    29    15    33 1   
    30    15    34 1   
    31    15    35 1   
    32    16    17 ar  
    33    16    21 ar  
    34    16    42 1   
    35    17    18 ar  
    36    17    36 1   
    37    18    19 ar  
    38    18    37 1   
    39    19    20 ar  
    40    20    21 ar  
    41    20    38 1   
    42    21    39 1   
    43    22    42 1   
    44    40    42 1   
@<TRIPOS>SUBSTRUCTURE
     1 03O         1 TEMP              0 ****  ****    0 ROOT
