@<TRIPOS>MOLECULE
03P
   64    67     1     0     0
SMALL
bcc


@<TRIPOS>ATOM
      1 N1           0.1690    -0.4290     0.0380 nb         1 03P      -0.687000
      2 N3           4.4280     0.4970    -1.1050 ny         1 03P      -0.664800
      3 C4           3.5370     0.8110     2.9170 cc         1 03P      -0.088100
      4 C5           2.2930     1.3560     3.1840 cd         1 03P      -0.261800
      5 C7           5.3020     0.2600     0.0750 c3         1 03P       0.081800
      6 C8           5.0000     1.5580    -2.0160 c          1 03P       0.551100
      7 C10          1.8570    -1.6050    -2.0040 ca         1 03P       0.095600
      8 C13          1.3530    -1.7310    -4.7630 ca         1 03P       0.085100
      9 C15          1.7800    -2.8530    -2.6620 ca         1 03P      -0.149000
     10 C17         -0.0410    -1.4940    -8.0850 ca         1 03P      -0.112000
     11 C20         -2.4140    -1.6370    -6.6120 ca         1 03P      -0.135300
     12 C21         -1.1930    -1.7600    -5.9450 ca         1 03P      -0.138000
     13 C22         -3.7070    -1.7290    -5.8070 c3         1 03P       0.687200
     14 C24          7.6330    -0.1430    -4.2640 c3         1 03P      -0.134100
     15 F2          -3.6250    -1.1920    -4.5450 f          1 03P      -0.231967
     16 F           -4.7820    -1.0950    -6.3770 f          1 03P      -0.231967
     17 F1          -4.1420    -3.0150    -5.5960 f          1 03P      -0.231967
     18 C19         -2.4620    -1.4480    -7.9930 ca         1 03P      -0.095000
     19 C18         -1.2720    -1.3800    -8.7230 ca         1 03P      -0.104000
     20 C16         -0.0170    -1.6850    -6.6930 ca         1 03P       0.098100
     21 O1           1.2600    -1.8420    -6.1460 os         1 03P      -0.246200
     22 C12          1.4120    -0.4830    -4.1210 ca         1 03P       0.021400
     23 Cl           1.1910     0.9670    -4.9660 cl         1 03P      -0.040400
     24 C11          1.6550    -0.4240    -2.7450 ca         1 03P      -0.172000
     25 C14          1.5300    -2.9110    -4.0260 ca         1 03P      -0.091000
     26 C1           1.4960    -0.6570     0.2210 ca         1 03P       0.578200
     27 C           -0.4620     0.4130     0.9060 ca         1 03P       0.639900
     28 C3           2.1780    -0.0050     1.2890 ca         1 03P      -0.304800
     29 C2           1.3810     0.8610     2.1640 ca         1 03P       0.455100
     30 N            0.0640     1.0710     1.9660 nb         1 03P      -0.623000
     31 N2           3.4880    -0.0320     1.7840 na         1 03P      -0.093400
     32 O            4.3440     2.5860    -2.0920 o          1 03P      -0.410100
     33 C9           6.2970     1.2570    -2.7040 c3         1 03P      -0.152400
     34 C23          6.2850    -0.0120    -3.5650 c3         1 03P       0.152800
     35 O2           6.0940    -1.0980    -2.6520 oh         1 03P      -0.658800
     36 C25          5.1550     0.0170    -4.5830 c3         1 03P      -0.134100
     37 C6           4.6400    -0.6040     1.1740 c3         1 03P       0.037300
     38 N4           2.2430    -1.5360    -0.6350 nu         1 03P      -0.735300
     39 HN3          4.3410    -0.3840    -1.6440 hn         1 03P       0.479800
     40 H4           4.4750     0.9330     3.4680 h4         1 03P       0.184000
     41 H5           2.0190     2.0200     4.0030 ha         1 03P       0.197000
     42 H6           4.3900    -1.6200     0.7540 h1         1 03P       0.099200
     43 H6A          5.4330    -0.7460     1.9680 h1         1 03P       0.099200
     44 H7           6.2250    -0.2820    -0.2860 hx         1 03P       0.111200
     45 H7A          5.5960     1.2620     0.4980 hx         1 03P       0.111200
     46 H15          1.9010    -3.7920    -2.0990 ha         1 03P       0.153000
     47 H17          0.9030    -1.4440    -8.6470 ha         1 03P       0.158000
     48 H21         -1.1680    -1.9050    -4.8540 ha         1 03P       0.160000
     49 H24          7.8150     0.7400    -4.9220 hc         1 03P       0.065367
     50 H24A         8.4550    -0.2180    -3.5130 hc         1 03P       0.065367
     51 H24B         7.6440    -1.0650    -4.8970 hc         1 03P       0.065367
     52 H19         -3.4340    -1.3500    -8.5030 ha         1 03P       0.164000
     53 H18         -1.3100    -1.2330    -9.8130 ha         1 03P       0.155000
     54 H11          1.6310     0.5550    -2.2420 ha         1 03P       0.146000
     55 H14          1.4650    -3.8820    -4.5440 ha         1 03P       0.173000
     56 HN4          2.2740    -2.4540    -0.2190 hn         1 03P       0.415800
     57 H           -1.5490     0.5640     0.7160 h5         1 03P       0.082100
     58 H9           7.1050     1.1700    -1.9250 hc         1 03P       0.119200
     59 H9A          6.5350     2.1360    -3.3670 hc         1 03P       0.119200
     60 HO2          6.2390    -1.9180    -3.1420 ho         1 03P       0.445000
     61 H25          5.1840    -0.9060    -5.2120 hc         1 03P       0.065367
     62 H25A         5.2620     0.9040    -5.2530 hc         1 03P       0.065367
     63 H25B         4.1620     0.0620    -4.0730 hc         1 03P       0.065367
     64 H32          3.4870     0.7860    -0.7960 hn         1 03P       0.479800
@<TRIPOS>BOND
     1     1    26 ar  
     2     1    27 ar  
     3     2     5 1   
     4     2     6 1   
     5     2    39 1   
     6     2    64 1   
     7     3     4 2   
     8     3    31 1   
     9     3    40 1   
    10     4    29 1   
    11     4    41 1   
    12     5    37 1   
    13     5    44 1   
    14     5    45 1   
    15     6    32 2   
    16     6    33 1   
    17     7     9 ar  
    18     7    24 ar  
    19     7    38 1   
    20     8    21 1   
    21     8    22 ar  
    22     8    25 ar  
    23     9    25 ar  
    24     9    46 1   
    25    10    19 ar  
    26    10    20 ar  
    27    10    47 1   
    28    11    12 ar  
    29    11    13 1   
    30    11    18 ar  
    31    12    20 ar  
    32    12    48 1   
    33    13    15 1   
    34    13    16 1   
    35    13    17 1   
    36    14    34 1   
    37    14    49 1   
    38    14    50 1   
    39    14    51 1   
    40    18    19 ar  
    41    18    52 1   
    42    19    53 1   
    43    20    21 1   
    44    22    23 1   
    45    22    24 ar  
    46    24    54 1   
    47    25    55 1   
    48    26    28 ar  
    49    26    38 1   
    50    27    30 ar  
    51    27    57 1   
    52    28    29 ar  
    53    28    31 1   
    54    29    30 ar  
    55    31    37 1   
    56    33    34 1   
    57    33    58 1   
    58    33    59 1   
    59    34    35 1   
    60    34    36 1   
    61    35    60 1   
    62    36    61 1   
    63    36    62 1   
    64    36    63 1   
    65    37    42 1   
    66    37    43 1   
    67    38    56 1   
@<TRIPOS>SUBSTRUCTURE
     1 03P         1 TEMP              0 ****  ****    0 ROOT
