@<TRIPOS>MOLECULE
molecule
   63    66     1     0     0
SMALL
bcc


@<TRIPOS>ATOM
      1 N1           0.0000     0.0000     0.0000 nb         1 03P      -0.794000
      2 N3           5.8280     1.4160    -0.7630 ns         1 03P      -0.604900
      3 C4           3.4110    -0.0000     2.9690 cc         1 03P      -0.081100
      4 C5           2.1780     0.0000     3.5100 cd         1 03P      -0.306800
      5 C7           4.6880     1.4160     0.1570 c3         1 03P       0.083000
      6 C8           6.2150     2.5620    -1.3570 c          1 03P       0.660100
      7 C10          1.3600     0.1350    -2.4090 ca         1 03P       0.139600
      8 C13          0.0190     0.3980    -4.8180 ca         1 03P       0.116100
      9 C15          1.8320    -0.5140    -3.5420 ca         1 03P      -0.134000
     10 C17          0.5940     0.6950    -8.0280 ca         1 03P      -0.104000
     11 C20          0.3020    -2.0320    -8.4090 ca         1 03P      -0.173300
     12 C21         -0.2460    -1.4320    -7.2920 ca         1 03P      -0.102000
     13 C22          0.1370    -3.5140    -8.6240 c3         1 03P       0.675200
     14 C24          8.0040     4.8310    -1.4590 c3         1 03P      -0.122100
     15 F2          -1.0300    -3.7510    -9.3590 f          1 03P      -0.221967
     16 F            1.2390    -4.0090    -9.3290 f          1 03P      -0.221967
     17 F1           0.0470    -4.1600    -7.3870 f          1 03P      -0.221967
     18 C19          1.0040    -1.2750    -9.3280 ca         1 03P      -0.085000
     19 C18          1.1450     0.0880    -9.1400 ca         1 03P      -0.124000
     20 C16         -0.1020    -0.0660    -7.0980 ca         1 03P       0.100100
     21 O1          -0.6390     0.5270    -6.0000 os         1 03P      -0.233200
     22 C12         -0.4590     1.0410    -3.6840 ca         1 03P       0.023400
     23 Cl          -1.8920     2.0160    -3.7780 cl         1 03P      -0.084400
     24 C11          0.2100     0.9100    -2.4820 ca         1 03P      -0.085000
     25 C14          1.1630    -0.3830    -4.7430 ca         1 03P      -0.182000
     26 C1           1.3290     0.0000     0.0000 ca         1 03P       0.727200
     27 C           -0.6880    -0.0000     1.1280 ca         1 03P       0.695900
     28 C3           1.9990     0.0000     1.2290 ca         1 03P      -0.336800
     29 C2           1.2260    -0.0000     2.4040 ca         1 03P       0.483100
     30 N           -0.1060    -0.0000     2.3070 nb         1 03P      -0.733000
     31 N2           3.3200     0.0000     1.6080 na         1 03P      -0.059400
     32 O            5.6190     3.5940    -1.1300 o          1 03P      -0.571100
     33 C9           7.3880     2.5610    -2.3040 c3         1 03P      -0.142400
     34 C23          7.7150     3.9990    -2.7110 c3         1 03P       0.166800
     35 O2           6.6020     4.5620    -3.4100 oh         1 03P      -0.585800
     36 C25          8.9440     4.0050    -3.6220 c3         1 03P      -0.122100
     37 HN3          6.3290     0.5680    -0.9380 hn         1 03P       0.307500
     38 H4           4.3370    -0.0020     3.5310 h4         1 03P       0.172000
     39 H5           1.9380    -0.0000     4.5660 ha         1 03P       0.171000
     40 H6           4.2570    -0.6680    -0.1400 h1         1 03P       0.059700
     41 H6A          5.3480    -0.3350     1.2130 h1         1 03P       0.059700
     42 H7           4.8920     2.0840     0.9850 h1         1 03P       0.071700
     43 H7A          3.8010     1.7510    -0.3670 h1         1 03P       0.071700
     44 H15          2.7270    -1.1220    -3.4850 ha         1 03P       0.131000
     45 H17          0.7070     1.7620    -7.8800 ha         1 03P       0.154000
     46 H21         -0.7890    -2.0280    -6.5680 ha         1 03P       0.164000
     47 H24          7.1010     5.3410    -1.1470 hc         1 03P       0.045700
     48 H24A         8.7730     5.5620    -1.6800 hc         1 03P       0.045700
     49 H24B         8.3440     4.1790    -0.6630 hc         1 03P       0.045700
     50 H19          1.4350    -1.7480   -10.2020 ha         1 03P       0.150000
     51 H18          1.6920     0.6800    -9.8640 ha         1 03P       0.145000
     52 H11         -0.1610     1.4140    -1.5980 ha         1 03P       0.180000
     53 H14          1.5320    -0.8890    -5.6270 ha         1 03P       0.149000
     54 HN4          3.0280    -0.1450    -1.1840 hn         1 03P       0.454800
     55 H           -1.7700    -0.0000     1.0800 h5         1 03P       0.063100
     56 H9           8.2470     2.1200    -1.8130 hc         1 03P       0.066200
     57 H9A          7.1390     1.9840    -3.1860 hc         1 03P       0.066200
     58 HO2          6.8920     5.3000    -3.9210 ho         1 03P       0.402000
     59 H25          9.7830     3.5620    -3.0990 hc         1 03P       0.045700
     60 H25A         9.1860     5.0250    -3.8950 hc         1 03P       0.045700
     61 H25B         8.7330     3.4310    -4.5160 hc         1 03P       0.045700
     62 C6           4.4610    -0.0000     0.6880 c3         1 03P       0.028300
     63 N4           2.0370     0.0010    -1.1910 nu         1 03P      -0.777300
@<TRIPOS>BOND
     1     1    27 ar  
     2     1    26 ar  
     3     6     2 1   
     4     2     5 1   
     5     2    37 1   
     6    31     3 1   
     7     4     3 2   
     8     3    38 1   
     9    29     4 1   
    10     4    39 1   
    11     5    62 1   
    12    62    31 1   
    13    62    40 1   
    14    62    41 1   
    15     5    42 1   
    16     5    43 1   
    17    32     6 2   
    18    33     6 1   
    19    24     7 ar  
    20     9     7 ar  
    21     7    63 1   
    22    21     8 1   
    23     8    22 ar  
    24     8    25 ar  
    25    25     9 ar  
    26     9    44 1   
    27    19    10 ar  
    28    10    20 ar  
    29    10    45 1   
    30    18    11 ar  
    31    11    13 1   
    32    11    12 ar  
    33    20    12 ar  
    34    12    46 1   
    35    16    13 1   
    36    13    15 1   
    37    13    17 1   
    38    34    14 1   
    39    14    47 1   
    40    14    48 1   
    41    14    49 1   
    42    19    18 ar  
    43    18    50 1   
    44    19    51 1   
    45    20    21 1   
    46    23    22 1   
    47    22    24 ar  
    48    24    52 1   
    49    25    53 1   
    50    63    26 1   
    51    63    54 1   
    52    26    28 ar  
    53    27    30 ar  
    54    27    55 1   
    55    28    29 ar  
    56    28    31 1   
    57    30    29 ar  
    58    34    33 1   
    59    33    56 1   
    60    33    57 1   
    61    36    34 1   
    62    34    35 1   
    63    35    58 1   
    64    36    59 1   
    65    36    60 1   
    66    36    61 1   
@<TRIPOS>SUBSTRUCTURE
     1 03P         1 TEMP              0 ****  ****    0 ROOT
