@<TRIPOS>MOLECULE
03P
   63    66     1     0     0
SMALL
bcc


@<TRIPOS>ATOM
      1 N1           0.0000     0.0000     0.0000 nb         1 03P      -0.692000
      2 N3           5.8280     1.4160    -0.7630 ns         1 03P      -0.219900
      3 C4           3.4110    -0.0000     2.9690 cc         1 03P      -0.243100
      4 C5           2.1780     0.0000     3.5100 cd         1 03P      -0.271800
      5 C7           4.6880     1.4160     0.1570 c3         1 03P       0.024000
      6 C8           6.2150     2.5620    -1.3570 c          1 03P       0.575100
      7 C10          1.3600     0.1350    -2.4090 ca         1 03P      -0.015400
      8 C13          0.0190     0.3980    -4.8180 ca         1 03P       0.124100
      9 C15          1.8320    -0.5140    -3.5420 ca         1 03P      -0.100000
     10 C17          0.5940     0.6950    -8.0280 ca         1 03P      -0.079000
     11 C20          0.3020    -2.0320    -8.4090 ca         1 03P      -0.198300
     12 C21         -0.2460    -1.4320    -7.2920 ca         1 03P      -0.071000
     13 C22          0.1370    -3.5140    -8.6240 c3         1 03P       0.640200
     14 C24          8.0040     4.8310    -1.4590 c3         1 03P      -0.039600
     15 F2          -1.0300    -3.7510    -9.3590 f          1 03P      -0.206967
     16 F            1.2390    -4.0090    -9.3290 f          1 03P      -0.206967
     17 F1           0.0470    -4.1600    -7.3870 f          1 03P      -0.206967
     18 C19          1.0040    -1.2750    -9.3280 ca         1 03P      -0.050000
     19 C18          1.1450     0.0880    -9.1400 ca         1 03P      -0.093000
     20 C16         -0.1020    -0.0660    -7.0980 ca         1 03P       0.104100
     21 O1          -0.6390     0.5270    -6.0000 os         1 03P      -0.209200
     22 C12         -0.4590     1.0410    -3.6840 ca         1 03P      -0.048600
     23 Cl          -1.8920     2.0160    -3.7780 cl         1 03P      -0.000400
     24 C11          0.2100     0.9100    -2.4820 ca         1 03P      -0.066000
     25 C14          1.1630    -0.3830    -4.7430 ca         1 03P      -0.172000
     26 C1           1.3290     0.0000     0.0000 ca         1 03P       0.547200
     27 C           -0.6880    -0.0000     1.1280 ca         1 03P       0.641900
     28 C3           1.9990     0.0000     1.2290 ca         1 03P      -0.507800
     29 C2           1.2260    -0.0000     2.4040 ca         1 03P       0.439100
     30 N           -0.1060    -0.0000     2.3070 nb         1 03P      -0.617000
     31 N2           3.3200     0.0000     1.6080 na         1 03P       0.423600
     32 O            5.6190     3.5940    -1.1300 o          1 03P      -0.610100
     33 C9           7.3880     2.5610    -2.3040 c3         1 03P      -0.093400
     34 C23          7.7150     3.9990    -2.7110 c3         1 03P       0.185800
     35 O2           6.6020     4.5620    -3.4100 oh         1 03P      -0.569800
     36 C25          8.9440     4.0050    -3.6220 c3         1 03P      -0.039600
     37 HN3          6.3290     0.5680    -0.9380 hn         1 03P       0.171500
     38 H4           4.3370    -0.0020     3.5310 h4         1 03P       0.144000
     39 H5           1.9380    -0.0000     4.5660 ha         1 03P       0.140000
     40 H6           4.2570    -0.6680    -0.1400 h1         1 03P       0.035200
     41 H6A          5.3480    -0.3350     1.2130 h1         1 03P       0.035200
     42 H7           4.8920     2.0840     0.9850 h1         1 03P       0.040700
     43 H7A          3.8010     1.7510    -0.3670 h1         1 03P       0.040700
     44 H15          2.7270    -1.1220    -3.4850 ha         1 03P       0.103000
     45 H17          0.7070     1.7620    -7.8800 ha         1 03P       0.122000
     46 H21         -0.7890    -2.0280    -6.5680 ha         1 03P       0.135000
     47 H24          7.1010     5.3410    -1.1470 hc         1 03P       0.015700
     48 H24A         8.7730     5.5620    -1.6800 hc         1 03P       0.015700
     49 H24B         8.3440     4.1790    -0.6630 hc         1 03P       0.015700
     50 H19          1.4350    -1.7480   -10.2020 ha         1 03P       0.120000
     51 H18          1.6920     0.6800    -9.8640 ha         1 03P       0.113000
     52 H11         -0.1610     1.4140    -1.5980 ha         1 03P       0.151000
     53 H14          1.5320    -0.8890    -5.6270 ha         1 03P       0.126000
     54 HN4          3.0280    -0.1450    -1.1840 hn         1 03P       0.291800
     55 H           -1.7700    -0.0000     1.0800 h5         1 03P      -0.000900
     56 H9           8.2470     2.1200    -1.8130 hc         1 03P       0.034200
     57 H9A          7.1390     1.9840    -3.1860 hc         1 03P       0.034200
     58 HO2          6.8920     5.3000    -3.9210 ho         1 03P       0.389000
     59 H25          9.7830     3.5620    -3.0990 hc         1 03P       0.015700
     60 H25A         9.1860     5.0250    -3.8950 hc         1 03P       0.015700
     61 H25B         8.7330     3.4310    -4.5160 hc         1 03P       0.015700
     62 C6           4.4610    -0.0000     0.6880 c3         1 03P      -0.064700
     63 N4           2.0370     0.0010    -1.1910 nu         1 03P      -0.331300
@<TRIPOS>BOND
     1     1    26 ar  
     2     1    27 ar  
     3     2     5 1   
     4     2     6 1   
     5     2    37 1   
     6     3     4 2   
     7     3    31 1   
     8     3    38 1   
     9     4    29 1   
    10     4    39 1   
    11     5    42 1   
    12     5    43 1   
    13     5    62 1   
    14     6    32 2   
    15     6    33 1   
    16     7     9 ar  
    17     7    24 ar  
    18     7    63 1   
    19     8    21 1   
    20     8    22 ar  
    21     8    25 ar  
    22     9    25 ar  
    23     9    44 1   
    24    10    19 ar  
    25    10    20 ar  
    26    10    45 1   
    27    11    12 ar  
    28    11    13 1   
    29    11    18 ar  
    30    12    20 ar  
    31    12    46 1   
    32    13    15 1   
    33    13    16 1   
    34    13    17 1   
    35    14    34 1   
    36    14    47 1   
    37    14    48 1   
    38    14    49 1   
    39    18    19 ar  
    40    18    50 1   
    41    19    51 1   
    42    20    21 1   
    43    22    23 1   
    44    22    24 ar  
    45    24    52 1   
    46    25    53 1   
    47    26    28 ar  
    48    26    63 1   
    49    27    30 ar  
    50    27    55 1   
    51    28    29 ar  
    52    28    31 1   
    53    29    30 ar  
    54    31    62 1   
    55    33    34 1   
    56    33    56 1   
    57    33    57 1   
    58    34    35 1   
    59    34    36 1   
    60    35    58 1   
    61    36    59 1   
    62    36    60 1   
    63    36    61 1   
    64    40    62 1   
    65    41    62 1   
    66    54    63 1   
@<TRIPOS>SUBSTRUCTURE
     1 03P         1 TEMP              0 ****  ****    0 ROOT
