@<TRIPOS>MOLECULE
molecule
   53    56     1     0     0
SMALL
bcc


@<TRIPOS>ATOM
      1 O1           0.0000     0.0000     0.0000 oh         1 03Q      -0.602800
      2 C2           1.4290     0.0000     0.0000 c3         1 03Q       0.143400
      3 C3           1.9400     0.0000     1.4410 c3         1 03Q       0.144400
      4 O4           1.5630    -1.2210     2.0800 os         1 03Q      -0.424600
      5 C5           1.9930    -1.3240     3.4390 c3         1 03Q       0.105400
      6 C6           1.5370    -2.6640     4.0190 c3         1 03Q       0.044300
      7 N7           1.9780    -2.7700     5.4120 na         1 03Q      -0.061400
      8 C8           3.0240    -3.5280     5.8480 cc         1 03Q      -0.077100
      9 C9           3.1590    -3.3990     7.1810 cd         1 03Q      -0.311800
     10 C10          2.1140    -2.4850     7.6300 ca         1 03Q       0.483100
     11 N11          1.7460    -1.9810     8.8110 nb         1 03Q      -0.732000
     12 C12          0.7280    -1.1520     8.8930 ca         1 03Q       0.695900
     13 N13          0.0290    -0.7830     7.8360 nb         1 03Q      -0.800000
     14 C14          0.3240    -1.2350     6.6190 ca         1 03Q       0.723200
     15 N15         -0.4170    -0.8380     5.5180 nu         1 03Q      -0.774300
     16 C16         -1.4130     0.1370     5.6590 ca         1 03Q       0.013300
     17 C17         -1.2730     1.1550     6.5910 ca         1 03Q       0.462200
     18 N18         -2.2080     2.0760     6.7290 nb         1 03Q      -0.727000
     19 C19         -3.3070     2.0690     5.9930 ca         1 03Q       0.632600
     20 O20         -4.2400     3.0380     6.1710 os         1 03Q      -0.347400
     21 C21         -4.0230     3.9620     7.1440 ca         1 03Q       0.111100
     22 C22         -3.5780     5.2330     6.8080 ca         1 03Q      -0.098000
     23 C23         -3.3580     6.1700     7.7980 ca         1 03Q      -0.127000
     24 C24         -3.5810     5.8430     9.1240 ca         1 03Q      -0.085000
     25 C25         -4.0250     4.5780     9.4610 ca         1 03Q      -0.171300
     26 C26         -4.2520     3.6380     8.4740 ca         1 03Q      -0.076000
     27 C27         -4.2660     4.2250    10.9050 c3         1 03Q       0.675200
     28 F28         -5.6070     3.8610    11.0790 f          1 03Q      -0.222633
     29 F29         -3.4420     3.1540    11.2680 f          1 03Q      -0.222633
     30 F30         -3.9760     5.3310    11.7110 f          1 03Q      -0.222633
     31 C31         -3.5160     1.0800     5.0390 ca         1 03Q      -0.088900
     32 Cl32        -4.9620     1.0790     4.0770 cl         1 03Q      -0.079400
     33 C33         -2.5560     0.0990     4.8610 ca         1 03Q      -0.103000
     34 C34          1.4020    -2.1140     6.4760 ca         1 03Q      -0.337800
     35 HO1         -0.3140     0.0630    -0.8870 ho         1 03Q       0.405000
     36 H2           1.7900     0.8840    -0.5110 h1         1 03Q       0.032700
     37 H2A          1.7900    -0.8840    -0.5110 h1         1 03Q       0.032700
     38 H3           1.5080     0.8360     1.9780 h1         1 03Q       0.037200
     39 H3A          3.0200     0.0890     1.4420 h1         1 03Q       0.037200
     40 H5           1.5620    -0.5160     4.0160 h1         1 03Q       0.040700
     41 H5A          3.0740    -1.2620     3.4810 h1         1 03Q       0.040700
     42 H6           0.4560    -2.7270     3.9760 h1         1 03Q       0.071700
     43 H6A          1.9680    -3.4730     3.4420 h1         1 03Q       0.071700
     44 H8           3.6530    -4.1430     5.2160 h4         1 03Q       0.174000
     45 H9           3.9030    -3.8820     7.8030 ha         1 03Q       0.171000
     46 H12          0.4530    -0.7590     9.8640 h5         1 03Q       0.065100
     47 HN15        -0.2770    -1.2850     4.6340 hn         1 03Q       0.463800
     48 H17         -0.3870     1.1950     7.2120 h4         1 03Q       0.061100
     49 H22         -3.4030     5.4900     5.7700 ha         1 03Q       0.147000
     50 H23         -3.0110     7.1620     7.5370 ha         1 03Q       0.142000
     51 H24         -3.4060     6.5790     9.8990 ha         1 03Q       0.151000
     52 H26         -4.6000     2.6470     8.7390 ha         1 03Q       0.157000
     53 H33         -2.6930    -0.6840     4.1250 ha         1 03Q       0.158000
@<TRIPOS>BOND
     1     1     2 1
     2     1    35 1
     3     2     3 1
     4     2    36 1
     5     2    37 1
     6     4     3 1
     7     3    38 1
     8     3    39 1
     9     4     5 1
    10     6     5 1
    11     5    40 1
    12     5    41 1
    13     6     7 1
    14     6    42 1
    15     6    43 1
    16    34     7 1
    17     7     8 1
    18     8     9 2
    19     8    44 1
    20    10     9 1
    21     9    45 1
    22    34    10 ar
    23    11    10 ar
    24    12    11 ar
    25    13    12 ar
    26    12    46 1
    27    13    14 ar
    28    15    14 1
    29    14    34 ar
    30    16    15 1
    31    15    47 1
    32    33    16 ar
    33    16    17 ar
    34    18    17 ar
    35    17    48 1
    36    19    18 ar
    37    20    19 1
    38    31    19 ar
    39    20    21 1
    40    26    21 ar
    41    21    22 ar
    42    22    23 ar
    43    22    49 1
    44    24    23 ar
    45    23    50 1
    46    25    24 ar
    47    24    51 1
    48    27    25 1
    49    26    25 ar
    50    26    52 1
    51    29    27 1
    52    28    27 1
    53    27    30 1
    54    32    31 1
    55    31    33 ar
    56    33    53 1
@<TRIPOS>SUBSTRUCTURE
     1 03Q         1 TEMP              0 ****  ****    0 ROOT
