@<TRIPOS>MOLECULE
03Q
   53    56     1     0     0
SMALL
bcc


@<TRIPOS>ATOM
      1 O1          -0.3310    -1.4340     1.2870 oh         1 03Q      -0.604800
      2 C2           0.8580    -0.9220     0.7110 c3         1 03Q       0.099400
      3 C3           1.7970    -0.5750     1.8630 c3         1 03Q       0.125400
      4 O4           1.4110     0.6330     2.5040 os         1 03Q      -0.429600
      5 C5           1.9350     1.8080     1.8960 c3         1 03Q       0.101400
      6 C6           1.2230     3.0140     2.5290 c3         1 03Q       0.038300
      7 N7           1.5280     3.2620     3.9060 na         1 03Q      -0.049400
      8 C8           2.6270     4.0300     4.3180 cc         1 03Q      -0.098100
      9 C9           2.7000     4.0910     5.7050 cd         1 03Q      -0.296800
     10 C10          1.5950     3.3060     6.2170 ca         1 03Q       0.438100
     11 N11          1.1980     3.0490     7.4880 nb         1 03Q      -0.668000
     12 C12          0.1020     2.2720     7.5810 ca         1 03Q       0.631900
     13 N13         -0.6370     1.7100     6.5780 nb         1 03Q      -0.743000
     14 C14         -0.2630     1.9550     5.2940 ca         1 03Q       0.665200
     15 N15         -0.9940     1.4530     4.1930 nu         1 03Q      -0.710300
     16 C16         -2.1990     0.7450     4.3820 ca         1 03Q       0.005300
     17 C17         -2.4280    -0.4800     3.6870 ca         1 03Q       0.384200
     18 N18         -3.5840    -1.1530     3.7230 nb         1 03Q      -0.689000
     19 C19         -4.5880    -0.6430     4.4780 ca         1 03Q       0.595600
     20 O20         -5.8310    -1.2690     4.5220 os         1 03Q      -0.356400
     21 C21         -5.9120    -2.5780     4.0460 ca         1 03Q       0.110100
     22 C22         -5.1540    -3.6150     4.6030 ca         1 03Q      -0.101000
     23 C23         -5.3810    -4.9220     4.1750 ca         1 03Q      -0.122000
     24 C24         -6.3500    -5.1910     3.2080 ca         1 03Q      -0.092000
     25 C25         -7.0950    -4.1430     2.6630 ca         1 03Q      -0.159300
     26 C26         -6.8830    -2.8250     3.0670 ca         1 03Q      -0.084000
     27 C27         -8.1620    -4.4460     1.6180 c3         1 03Q       0.688200
     28 F28         -8.4170    -3.4180     0.7420 f          1 03Q      -0.237300
     29 F29         -9.3950    -4.7500     2.1440 f          1 03Q      -0.237300
     30 F30         -7.8750    -5.5150     0.8040 f          1 03Q      -0.237300
     31 C31         -4.4680     0.5620     5.2200 ca         1 03Q      -0.094900
     32 Cl32        -5.7340     1.1790     6.1580 cl         1 03Q      -0.052400
     33 C33         -3.2570     1.2560     5.1600 ca         1 03Q      -0.068000
     34 C34          0.8850     2.7840     5.0510 ca         1 03Q      -0.285800
     35 HO1         -0.9180    -1.6740     0.5600 ho         1 03Q       0.411000
     36 H2           1.3340    -1.7000     0.0560 h1         1 03Q       0.031700
     37 H2A          0.6260    -0.0120     0.0960 h1         1 03Q       0.031700
     38 H3           2.8510    -0.5150     1.4890 h1         1 03Q       0.067700
     39 H3A          1.7120    -1.3480     2.6750 h1         1 03Q       0.067700
     40 H5           1.7230     1.8070     0.7940 h1         1 03Q       0.041700
     41 H5A          3.0440     1.8460     2.0630 h1         1 03Q       0.041700
     42 H6           0.1110     2.8950     2.4050 h1         1 03Q       0.077200
     43 H6A          1.5430     3.9230     1.9380 h1         1 03Q       0.077200
     44 H8           3.2790     4.4980     3.5760 h4         1 03Q       0.167000
     45 H9           3.4320     4.6210     6.3060 ha         1 03Q       0.174000
     46 H12         -0.2570     2.0400     8.6060 h5         1 03Q       0.054100
     47 HN15        -0.3950     1.0280     3.5050 hn         1 03Q       0.443800
     48 H17         -1.6400    -0.9380     3.0530 h4         1 03Q       0.053100
     49 H22         -4.3880    -3.3930     5.3610 ha         1 03Q       0.156000
     50 H23         -4.7920    -5.7470     4.6030 ha         1 03Q       0.145000
     51 H24         -6.5260    -6.2230     2.8680 ha         1 03Q       0.151000
     52 H26         -7.4650    -1.9950     2.6360 ha         1 03Q       0.167000
     53 H33         -3.1410     2.1950     5.7260 ha         1 03Q       0.172000
@<TRIPOS>BOND
     1     1     2 1   
     2     1    35 1   
     3     2     3 1   
     4     2    36 1   
     5     2    37 1   
     6     3     4 1   
     7     3    38 1   
     8     3    39 1   
     9     4     5 1   
    10     5     6 1   
    11     5    40 1   
    12     5    41 1   
    13     6     7 1   
    14     6    42 1   
    15     6    43 1   
    16     7     8 1   
    17     7    34 1   
    18     8     9 2   
    19     8    44 1   
    20     9    10 1   
    21     9    45 1   
    22    10    11 ar  
    23    10    34 ar  
    24    11    12 ar  
    25    12    13 ar  
    26    12    46 1   
    27    13    14 ar  
    28    14    15 1   
    29    14    34 ar  
    30    15    16 1   
    31    15    47 1   
    32    16    17 ar  
    33    16    33 ar  
    34    17    18 ar  
    35    17    48 1   
    36    18    19 ar  
    37    19    20 1   
    38    19    31 ar  
    39    20    21 1   
    40    21    22 ar  
    41    21    26 ar  
    42    22    23 ar  
    43    22    49 1   
    44    23    24 ar  
    45    23    50 1   
    46    24    25 ar  
    47    24    51 1   
    48    25    26 ar  
    49    25    27 1   
    50    26    52 1   
    51    27    28 1   
    52    27    29 1   
    53    27    30 1   
    54    31    32 1   
    55    31    33 ar  
    56    33    53 1   
@<TRIPOS>SUBSTRUCTURE
     1 03Q         1 TEMP              0 ****  ****    0 ROOT
