@<TRIPOS>MOLECULE
molecule
   65    68     1     0     0
SMALL
bcc


@<TRIPOS>ATOM
      1 C1           0.0000     0.0000     0.0000 ca         1 03R       0.719600
      2 N2           1.3830     0.0000     0.0000 nb         1 03R      -0.755000
      3 C3          -0.6750     0.0070     1.2440 ca         1 03R      -0.035400
      4 O4          -0.8070     0.0220    -1.1010 os         1 03R      -0.335400
      5 C5           2.0890     0.0000     1.1860 ca         1 03R       0.646600
      6 C6           0.0340     0.0130     2.4530 ca         1 03R       0.170600
      7 F7          -1.9730     0.0010     1.2390 f          1 03R      -0.106900
      8 C8          -0.4600    -0.0690    -2.4180 ca         1 03R       0.133100
      9 C9           1.4030     0.0200     2.3970 ca         1 03R      -0.056400
     10 O10          3.4080    -0.0640     1.4030 os         1 03R      -0.383400
     11 N11         -0.6450     0.0020     3.6320 nu         1 03R      -0.822600
     12 C12          0.3970    -1.0580    -3.0510 ca         1 03R      -0.066600
     13 C13         -0.9950     0.9900    -3.1870 ca         1 03R      -0.163000
     14 F14          2.1100     0.0130     3.4840 f          1 03R      -0.123900
     15 C15          4.5050    -0.0490     0.6500 ca         1 03R       0.184100
     16 C16         -0.4650    -0.8770     4.7770 c3         1 03R       0.265500
     17 C17          0.7000    -0.8980    -4.4280 ca         1 03R      -0.098000
     18 C18          0.8830    -2.2040    -2.4120 c          1 03R       0.858200
     19 C19         -0.6870     1.1090    -4.5520 ca         1 03R      -0.141000
     20 C20          5.5530     0.8630     0.9190 ca         1 03R      -0.136000
     21 C21          4.6780    -1.0120    -0.3530 ca         1 03R      -0.071000
     22 C22         -0.0620    -0.1020     6.0370 c3         1 03R      -0.100400
     23 C23          0.5400    -2.0410     4.5440 c3         1 03R      -0.106100
     24 C24          0.1730     0.1730    -5.1680 ca         1 03R      -0.160000
     25 O25          0.2230    -2.7830    -1.3920 o          1 03R      -0.837300
     26 O26          1.9490    -2.7390    -2.7710 o          1 03R      -0.837300
     27 C27          6.7650     0.8200     0.1850 ca         1 03R      -0.236900
     28 C28          5.8410    -1.0710    -1.0770 ca         1 03R      -0.100000
     29 C29         -0.3800     1.4120     6.1130 c3         1 03R      -0.025100
     30 C30          6.8760    -0.1680    -0.8080 ca         1 03R      -0.071000
     31 C31          7.8440     1.6970     0.4340 ce         1 03R       0.561800
     32 C32          0.7700     2.3100     5.8810 ca         1 03R      -0.069300
     33 N33          9.0630     1.2310     0.7660 n2         1 03R      -0.688100
     34 N34          7.7530     3.0430     0.3610 nz         1 03R      -0.797600
     35 C35          1.1590     2.6580     4.5640 ca         1 03R      -0.116000
     36 C36          1.5080     2.8400     6.9740 ca         1 03R      -0.116000
     37 C37          2.2530     3.5090     4.3380 ca         1 03R      -0.132500
     38 C38          2.6070     3.6940     6.7490 ca         1 03R      -0.132500
     39 C39          2.9800     4.0290     5.4310 ca         1 03R      -0.145000
     40 H11         -1.3660     0.6900     3.7240 hn         1 03R       0.434800
     41 H13         -1.6550     1.7120    -2.7210 ha         1 03R       0.128000
     42 H16         -1.4280    -1.3300     4.9790 h1         1 03R       0.041700
     43 H17          1.3480    -1.6150    -4.9170 ha         1 03R       0.156000
     44 H19         -1.0970     1.9290    -5.1290 ha         1 03R       0.118000
     45 H20          5.4250     1.6090     1.6940 ha         1 03R       0.129000
     46 H21          3.8800    -1.7130    -0.5660 ha         1 03R       0.219000
     47 H221        -0.5470    -0.5790     6.8810 hc         1 03R       0.046700
     48 H222         1.0070    -0.2170     6.1630 hc         1 03R       0.046700
     49 H231         0.3710    -2.8170     5.2800 hc         1 03R       0.053367
     50 H232         0.3970    -2.4480     3.5500 hc         1 03R       0.053367
     51 H233         1.5530    -1.6680     4.6390 hc         1 03R       0.053367
     52 H24          0.4130     0.2720    -6.2200 ha         1 03R       0.118000
     53 H28          5.9620    -1.8200    -1.8510 ha         1 03R       0.176000
     54 H291        -0.7840     1.6250     7.0950 hc         1 03R       0.044700
     55 H292        -1.1400     1.6370     5.3750 hc         1 03R       0.044700
     56 H30          7.7890    -0.2280    -1.3880 ha         1 03R       0.136000
     57 H33          9.8140     1.8690     0.9380 hn         1 03R       0.408400
     58 H341         7.8650     3.4340     1.2760 hn         1 03R       0.461800
     59 H342         8.4690     3.3940    -0.2420 hn         1 03R       0.461800
     60 H35          0.6050     2.2630     3.7200 ha         1 03R       0.136000
     61 H36          1.2240     2.5850     7.9880 ha         1 03R       0.136000
     62 H37          2.5390     3.7660     3.3250 ha         1 03R       0.123000
     63 H38          3.1640     4.0930     7.5880 ha         1 03R       0.123000
     64 H39          3.8240     4.6860     5.2580 ha         1 03R       0.114000
     65 H343         6.8510     3.2980     0.0090 hn         1 03R       0.461800
@<TRIPOS>BOND
     1     1     2 ar
     2     1     3 ar
     3     1     4 1
     4     2     5 ar
     5     3     6 ar
     6     3     7 1
     7     4     8 1
     8     5     9 ar
     9     5    10 1
    10     6     9 ar
    11     6    11 1
    12     8    12 ar
    13     8    13 ar
    14     9    14 1
    15    10    15 1
    16    11    16 1
    17    11    40 1
    18    12    17 ar
    19    12    18 1
    20    13    19 ar
    21    13    41 1
    22    15    20 ar
    23    15    21 ar
    24    16    22 1
    25    16    23 1
    26    16    42 1
    27    17    24 ar
    28    17    43 1
    29    18    25 1
    30    18    26 1
    31    19    24 ar
    32    19    44 1
    33    20    27 ar
    34    20    45 1
    35    21    28 ar
    36    21    46 1
    37    22    29 1
    38    22    47 1
    39    22    48 1
    40    23    49 1
    41    23    50 1
    42    23    51 1
    43    24    52 1
    44    27    30 ar
    45    27    31 1
    46    28    30 ar
    47    28    53 1
    48    29    32 1
    49    29    54 1
    50    29    55 1
    51    30    56 1
    52    31    33 2
    53    31    34 1
    54    32    35 ar
    55    32    36 ar
    56    33    57 1
    57    34    58 1
    58    34    59 1
    59    35    37 ar
    60    35    60 1
    61    36    38 ar
    62    36    61 1
    63    37    39 ar
    64    37    62 1
    65    38    39 ar
    66    38    63 1
    67    39    64 1
    68    65    34 1
@<TRIPOS>SUBSTRUCTURE
     1 03R         1 TEMP              0 ****  ****    0 ROOT
