@<TRIPOS>MOLECULE
03R
   65    68     1     0     0
SMALL
bcc


@<TRIPOS>ATOM
      1 C1           0.9320    -0.6250    -0.0870 ca         1 03R       0.616600
      2 N2           2.2740    -0.4580    -0.0160 nb         1 03R      -0.743000
      3 C3           0.0390    -0.4590     0.9990 ca         1 03R      -0.077400
      4 O4           0.3450    -1.0870    -1.2630 os         1 03R      -0.366400
      5 C5           2.7590    -0.0980     1.1890 ca         1 03R       0.639600
      6 C6           0.5570    -0.0830     2.2870 ca         1 03R       0.181600
      7 F7          -1.2870    -0.6570     0.8210 f          1 03R      -0.115900
      8 C8           0.9350    -0.7030    -2.4700 ca         1 03R       0.143100
      9 C9           1.9640     0.1140     2.3610 ca         1 03R      -0.050400
     10 O10          4.1110     0.1180     1.3970 os         1 03R      -0.349400
     11 N11         -0.3230     0.1810     3.3290 nu         1 03R      -0.726600
     12 C12          1.0600    -1.6880    -3.4650 ca         1 03R      -0.175600
     13 C13          1.2690     0.6330    -2.7210 ca         1 03R      -0.151000
     14 F14          2.5830     0.5080     3.4940 f          1 03R      -0.107900
     15 C15          4.9780    -0.0570     0.3110 ca         1 03R       0.089100
     16 C16         -0.1540    -0.3140     4.6900 c3         1 03R       0.215500
     17 C17          1.5090    -1.2950    -4.7340 ca         1 03R      -0.057000
     18 C18          0.7180    -3.1100    -3.2690 c          1 03R       0.652700
     19 C19          1.7330     0.9920    -3.9840 ca         1 03R      -0.082000
     20 C20          5.6990     1.0690    -0.1030 ca         1 03R      -0.117000
     21 C21          5.2050    -1.3230    -0.2390 ca         1 03R      -0.108000
     22 C22          0.3990     0.7490     5.6520 c3         1 03R      -0.083400
     23 C23          0.6720    -1.5920     4.8210 c3         1 03R      -0.123100
     24 C24          1.8500     0.0310    -4.9890 ca         1 03R      -0.147000
     25 O25          0.3540    -3.8870    -4.1550 o          1 03R      -0.496000
     26 O26          0.8270    -3.7020    -2.0460 oh         1 03R      -0.572100
     27 C27          6.6790     0.9080    -1.0870 ca         1 03R      -0.124900
     28 C28          6.1850    -1.4580    -1.2210 ca         1 03R      -0.124000
     29 C29         -0.5550     1.9150     5.8190 c3         1 03R      -0.035100
     30 C30          6.9230    -0.3520    -1.6430 ca         1 03R      -0.080000
     31 C31          7.4790     2.0910    -1.5400 ce         1 03R       0.651800
     32 C32         -0.0610     2.8800     6.8410 ca         1 03R      -0.081300
     33 N33          8.7740     1.9860    -1.5570 n2         1 03R      -0.823100
     34 N34          6.7030     3.1830    -1.9820 nv         1 03R      -0.959800
     35 C35          1.0600     3.6740     6.5730 ca         1 03R      -0.127000
     36 C36         -0.7170     3.0130     8.0700 ca         1 03R      -0.127000
     37 C37          1.5190     4.5860     7.5220 ca         1 03R      -0.127500
     38 C38         -0.2560     3.9260     9.0170 ca         1 03R      -0.127500
     39 C39          0.8620     4.7140     8.7460 ca         1 03R      -0.132000
     40 H11         -1.2800     0.1370     3.0340 hn         1 03R       0.419800
     41 H13          1.1670     1.3830    -1.9240 ha         1 03R       0.151000
     42 H16         -1.2040    -0.5600     5.0490 h1         1 03R       0.050700
     43 H17          1.5830    -2.0580    -5.5280 ha         1 03R       0.164000
     44 H19          2.0020     2.0400    -4.1890 ha         1 03R       0.143000
     45 H20          5.5060     2.0430     0.3680 ha         1 03R       0.147000
     46 H21          4.6170    -2.1880     0.0970 ha         1 03R       0.150000
     47 H221         1.3940     1.1230     5.2960 hc         1 03R       0.061700
     48 H222         0.5610     0.2510     6.6450 hc         1 03R       0.061700
     49 H231         0.5900    -1.9700     5.8680 hc         1 03R       0.051700
     50 H232         0.2970    -2.3840     4.1290 hc         1 03R       0.051700
     51 H233         1.7480    -1.3970     4.5980 hc         1 03R       0.051700
     52 H24          2.2110     0.3200    -5.9880 ha         1 03R       0.146000
     53 H28          6.3810    -2.4470    -1.6620 ha         1 03R       0.145000
     54 H291        -1.5690     1.5320     6.1130 hc         1 03R       0.050200
     55 H292        -0.6730     2.4510     4.8390 hc         1 03R       0.050200
     56 H30          7.7050    -0.4700    -2.4100 ha         1 03R       0.157000
     57 H33          9.2830     2.7880    -1.8620 hn         1 03R       0.385400
     58 H341         5.7540     3.1870    -1.6900 hn         1 03R       0.400300
     59 H342         1.1140    -3.0620    -1.3790 ho         1 03R       0.437000
     60 H35          1.5790     3.5740     5.6080 ha         1 03R       0.131500
     61 H36         -1.6000     2.3950     8.2900 ha         1 03R       0.131500
     62 H37          2.4010     5.2060     7.3040 ha         1 03R       0.131000
     63 H38         -0.7780     4.0250     9.9810 ha         1 03R       0.131000
     64 H39          1.2240     5.4340     9.4930 ha         1 03R       0.131000
     65 H343         7.1390     4.0760    -1.9810 hn         1 03R       0.400300
@<TRIPOS>BOND
     1     1     2 ar  
     2     1     3 ar  
     3     1     4 1   
     4     2     5 ar  
     5     3     6 ar  
     6     3     7 1   
     7     4     8 1   
     8     5     9 ar  
     9     5    10 1   
    10     6     9 ar  
    11     6    11 1   
    12     8    12 ar  
    13     8    13 ar  
    14     9    14 1   
    15    10    15 1   
    16    11    16 1   
    17    11    40 1   
    18    12    17 ar  
    19    12    18 1   
    20    13    19 ar  
    21    13    41 1   
    22    15    20 ar  
    23    15    21 ar  
    24    16    22 1   
    25    16    23 1   
    26    16    42 1   
    27    17    24 ar  
    28    17    43 1   
    29    18    25 2   
    30    18    26 1   
    31    19    24 ar  
    32    19    44 1   
    33    20    27 ar  
    34    20    45 1   
    35    21    28 ar  
    36    21    46 1   
    37    22    29 1   
    38    22    47 1   
    39    22    48 1   
    40    23    49 1   
    41    23    50 1   
    42    23    51 1   
    43    24    52 1   
    44    26    59 1   
    45    27    30 ar  
    46    27    31 1   
    47    28    30 ar  
    48    28    53 1   
    49    29    32 1   
    50    29    54 1   
    51    29    55 1   
    52    30    56 1   
    53    31    33 2   
    54    31    34 1   
    55    32    35 ar  
    56    32    36 ar  
    57    33    57 1   
    58    34    58 1   
    59    34    65 1   
    60    35    37 ar  
    61    35    60 1   
    62    36    38 ar  
    63    36    61 1   
    64    37    39 ar  
    65    37    62 1   
    66    38    39 ar  
    67    38    63 1   
    68    39    64 1   
@<TRIPOS>SUBSTRUCTURE
     1 03R         1 TEMP              0 ****  ****    0 ROOT
