@<TRIPOS>MOLECULE
molecule
    8     7     1     0     0
SMALL
bcc


@<TRIPOS>ATOM
      1 S10          0.0000     0.0000     0.0000 s6         1 03S       1.255800
      2 O11          1.4210     0.0000     0.0000 o          1 03S      -0.714200
      3 O12         -0.7320     0.0000     1.2180 o          1 03S      -0.714200
      4 C13         -0.6370     1.2720    -1.1250 c3         1 03S      -0.277300
      5 H113        -0.1700     1.1610    -2.0970 h1         1 03S       0.054700
      6 H213        -0.4110     2.2530    -0.7260 h1         1 03S       0.054700
      7 H313        -1.7100     1.1610    -1.2260 h1         1 03S       0.054700
      8 OXT         -0.3750    -1.3180    -0.6640 o          1 03S      -0.714200
@<TRIPOS>BOND
     1     1     2 1   
     2     3     1 1   
     3     4     1 1   
     4     4     5 1   
     5     4     6 1   
     6     4     7 1   
     7     1     8 1   
@<TRIPOS>SUBSTRUCTURE
     1 03S         1 TEMP              0 ****  ****    0 ROOT
