@<TRIPOS>MOLECULE
03T
   21    22     1     0     0
SMALL
bcc


@<TRIPOS>ATOM
      1 N            0.1390     0.0930    -0.5310 nz         1 03T      -0.781500
      2 S            1.8540    -0.2260     0.3420 sy         1 03T       1.540800
      3 O1           1.4300    -0.1920     1.6500 o          1 03T      -0.573300
      4 S1           1.7550    -3.1650     0.3520 ss         1 03T       0.307500
      5 C2           2.1520    -1.6400    -0.2590 cc         1 03T      -0.686500
      6 O2           2.5670     0.8150    -0.2110 o          1 03T      -0.573300
      7 C3           2.9430    -1.7940    -1.4270 cd         1 03T       0.074800
      8 C4           3.9100    -3.6700    -2.8480 ca         1 03T      -0.050000
      9 C5           4.0080    -5.0340    -2.9820 ca         1 03T      -0.126000
     10 C6           3.3810    -5.9040    -2.0530 ca         1 03T      -0.031000
     11 C7           2.6550    -5.4120    -0.9870 ca         1 03T      -0.131000
     12 C8           2.5360    -4.0200    -0.8210 ca         1 03T      -0.047100
     13 C9           3.1680    -3.1380    -1.7620 ca         1 03T      -0.127800
     14 HN          -0.5900     0.2180     0.1670 hn         1 03T       0.450133
     15 HNA         -0.1330    -0.6690    -1.1400 hn         1 03T       0.450133
     16 H3           3.3530    -0.9460    -1.9950 ha         1 03T       0.191000
     17 H4           4.3960    -2.9840    -3.5590 ha         1 03T       0.162000
     18 H5           4.5810    -5.4740    -3.8160 ha         1 03T       0.168000
     19 H6           3.4840    -6.9940    -2.1930 ha         1 03T       0.167000
     20 H7           2.1750    -6.0960    -0.2690 ha         1 03T       0.166000
     21 HN3          0.1870     0.9420    -1.0890 hn         1 03T       0.450133
@<TRIPOS>BOND
     1     1     2 1   
     2     1    14 1   
     3     1    15 1   
     4     1    21 1   
     5     2     3 2   
     6     2     5 1   
     7     2     6 2   
     8     4     5 1   
     9     4    12 1   
    10     5     7 2   
    11     7    13 1   
    12     7    16 1   
    13     8     9 ar  
    14     8    13 ar  
    15     8    17 1   
    16     9    10 ar  
    17     9    18 1   
    18    10    11 ar  
    19    10    19 1   
    20    11    12 ar  
    21    11    20 1   
    22    12    13 ar  
@<TRIPOS>SUBSTRUCTURE
     1 03T         1 TEMP              0 ****  ****    0 ROOT
