@<TRIPOS>MOLECULE
03T
   21    22     1     0     0
SMALL
bcc


@<TRIPOS>ATOM
      1 N            0.0000     0.0000     0.0000 nz         1 03T      -0.129500
      2 S            1.6570     0.0000     0.0000 sy         1 03T       0.960800
      3 O1           2.0580     0.0000     1.3630 o          1 03T      -0.484800
      4 S1           2.4690    -2.9870     0.2800 ss         1 03T      -0.102500
      5 C2           2.1780    -1.5440    -0.6710 cc         1 03T      -0.185500
      6 O2           2.0580     0.9970    -0.9300 o          1 03T      -0.484800
      7 C3           2.3970    -1.7600    -1.9540 cd         1 03T       0.132800
      8 C4           3.1340    -3.6690    -3.5400 ca         1 03T      -0.017000
      9 C5           3.5160    -4.9720    -3.6410 ca         1 03T      -0.092000
     10 C6           3.6040    -5.7720    -2.5100 ca         1 03T      -0.021000
     11 C7           3.3030    -5.2540    -1.2720 ca         1 03T      -0.071000
     12 C8           2.9100    -3.9200    -1.1460 ca         1 03T       0.082900
     13 C9           2.8210    -3.1120    -2.2820 ca         1 03T      -0.153800
     14 HN          -0.3340    -0.1050    -0.9380 hn         1 03T       0.314800
     15 HNA         -0.3340     0.8650     0.3780 hn         1 03T       0.314800
     16 H3           2.2700    -0.9900    -2.7050 ha         1 03T       0.129000
     17 H4           3.0700    -3.0570    -4.4310 ha         1 03T       0.115000
     18 H5           3.7540    -5.3880    -4.6130 ha         1 03T       0.126000
     19 H6           3.9090    -6.8070    -2.6040 ha         1 03T       0.123000
     20 H7           3.3740    -5.8830    -0.3920 ha         1 03T       0.128000
     21 HN3         -0.3340    -0.7470     0.5760 hn         1 03T       0.314800
@<TRIPOS>BOND
     1     1     2 1   
     2     1    14 1   
     3     1    15 1   
     4     1    21 1   
     5     2     3 2   
     6     2     5 1   
     7     2     6 2   
     8     4     5 1   
     9     4    12 1   
    10     5     7 2   
    11     7    13 1   
    12     7    16 1   
    13     8     9 ar  
    14     8    13 ar  
    15     8    17 1   
    16     9    10 ar  
    17     9    18 1   
    18    10    11 ar  
    19    10    19 1   
    20    11    12 ar  
    21    11    20 1   
    22    12    13 ar  
@<TRIPOS>SUBSTRUCTURE
     1 03T         1 TEMP              0 ****  ****    0 ROOT
