@<TRIPOS>MOLECULE
molecule
   21    22     1     0     0
SMALL
bcc


@<TRIPOS>ATOM
      1 N            0.0000     0.0000     0.0000 nz         1 03T      -0.807500
      2 S            1.6570     0.0000     0.0000 sy         1 03T       1.256800
      3 O1           2.0580     0.0000     1.3630 o          1 03T      -0.511800
      4 S1           2.4690    -2.9870     0.2800 ss         1 03T       0.032500
      5 C2           2.1780    -1.5440    -0.6710 cc         1 03T      -0.349500
      6 O2           2.0580     0.9970    -0.9300 o          1 03T      -0.511800
      7 C3           2.3970    -1.7600    -1.9540 cd         1 03T       0.065800
      8 C4           3.1340    -3.6690    -3.5400 ca         1 03T      -0.058000
      9 C5           3.5160    -4.9720    -3.6410 ca         1 03T      -0.122000
     10 C6           3.6040    -5.7720    -2.5100 ca         1 03T      -0.056000
     11 C7           3.3030    -5.2540    -1.2720 ca         1 03T      -0.111000
     12 C8           2.9100    -3.9200    -1.1460 ca         1 03T       0.030900
     13 C9           2.8210    -3.1120    -2.2820 ca         1 03T      -0.129800
     14 HN          -0.3340    -0.1050    -0.9380 hn         1 03T       0.493467
     15 HNA         -0.3340     0.8650     0.3780 hn         1 03T       0.493467
     16 H3           2.2700    -0.9900    -2.7050 ha         1 03T       0.167000
     17 H4           3.0700    -3.0570    -4.4310 ha         1 03T       0.149000
     18 H5           3.7540    -5.3880    -4.6130 ha         1 03T       0.159000
     19 H6           3.9090    -6.8070    -2.6040 ha         1 03T       0.161000
     20 H7           3.3740    -5.8830    -0.3920 ha         1 03T       0.157000
     21 HN3         -0.3340    -0.7470     0.5760 hn         1 03T       0.493467
@<TRIPOS>BOND
     1     1     2 1
     2     1    14 1
     3     1    15 1
     4     5     2 1
     5     6     2 2
     6     2     3 2
     7    12     4 1
     8     4     5 1
     9     7     5 2
    10    13     7 1
    11     7    16 1
    12     9     8 ar
    13     8    13 ar
    14     8    17 1
    15     9    10 ar
    16     9    18 1
    17    10    11 ar
    18    10    19 1
    19    11    12 ar
    20    11    20 1
    21    13    12 ar
    22    21     1 1
@<TRIPOS>SUBSTRUCTURE
     1 03T         1 TEMP              0 ****  ****    0 ROOT
