@<TRIPOS>MOLECULE
03U
   44    46     1     0     0
SMALL
bcc


@<TRIPOS>ATOM
      1 C1           0.0000     0.0000     0.0000 ca         1 03U      -0.039000
      2 C2           1.3940     0.0000     0.0000 cp         1 03U      -0.051000
      3 C3          -0.6880    -0.0020     1.1960 ca         1 03U      -0.138000
      4 C4           2.0880     0.0000     1.2110 ca         1 03U      -0.039000
      5 C5           0.0060    -0.0070     2.3950 ca         1 03U       0.074000
      6 C6           1.3910    -0.0000     2.4010 ca         1 03U      -0.138000
      7 C7           2.1380     0.0010    -1.2810 cq         1 03U       0.018000
      8 C8           3.0450    -1.0350    -1.5720 ca         1 03U      -0.100000
      9 C9           1.9380     1.0230    -2.2050 ca         1 03U      -0.087000
     10 C10          3.7400    -1.0250    -2.7820 ca         1 03U      -0.056000
     11 C11          2.6290     1.0230    -3.3990 ca         1 03U      -0.110000
     12 C12          3.5320     0.0040    -3.6870 ca         1 03U      -0.091000
     13 F13         -0.6720    -0.0060     3.5640 f          1 03U      -0.098000
     14 C14          3.2620    -2.1260    -0.6030 c2         1 03U       0.416000
     15 O15          4.2240    -3.0430    -0.8240 os         1 03U      -0.247000
     16 O16          2.5710    -2.1980     0.3950 o          1 03U      -0.395000
     17 C17          4.3790    -4.0880     0.1720 c3         1 03U       0.073000
     18 N18          4.2280     0.0140    -4.9000 ns         1 03U       0.112000
     19 C19          5.4850    -0.4690    -4.9600 c2         1 03U       0.270000
     20 C20          6.1750    -0.5650    -6.2550 c2         1 03U      -0.199000
     21 O21          6.0480    -0.8260    -3.9420 o          1 03U      -0.373000
     22 C22          7.4460    -1.0550    -6.3140 c2         1 03U       0.262000
     23 C23          5.5130    -0.1440    -7.4520 c1         1 03U      -0.092000
     24 N24          4.9920     0.1720    -8.4110 n1         1 03U      -0.065000
     25 O25          8.0680    -1.4490    -5.1900 oh         1 03U      -0.224000
     26 C26          8.1540    -1.1520    -7.6410 c3         1 03U      -0.478000
     27 C27          9.0140     0.0950    -7.8530 DU         1 03U       0.073000
     28 H1          -0.5420     0.0000    -0.9380 ha         1 03U       0.107000
     29 H3          -1.7710    -0.0020     1.1970 ha         1 03U       0.116500
     30 H4           3.1710    -0.0000     1.2140 ha         1 03U       0.107000
     31 H6           1.9280    -0.0000     3.3420 ha         1 03U       0.116500
     32 H9           1.2370     1.8200    -1.9880 ha         1 03U       0.115000
     33 H10          4.4390    -1.8190    -3.0120 ha         1 03U       0.151000
     34 H11          2.4720     1.8190    -4.1160 ha         1 03U       0.108000
     35 H17          5.3750    -4.5090     0.1010 h1         1 03U       0.042000
     36 H17A         3.6450    -4.8650    -0.0020 h1         1 03U       0.042000
     37 H17B         4.2330    -3.6690     1.1600 h1         1 03U       0.042000
     38 HN18         4.0170     0.7060    -5.5920 hn         1 03U       0.083000
     39 H26          8.1660    -0.1780    -8.1160 DU         1 03U       0.160000
     40 H26A         7.6330    -1.8580    -8.2770 hc         1 03U       0.169000
     41 H27          8.3920     0.9790    -7.7900 ha         1 03U       0.043000
     42 H27A         9.7820     0.1380    -7.0900 ha         1 03U       0.043000
     43 H27B         9.4790     0.0500    -8.8310 ha         1 03U       0.043000
     44 H171         8.0010    -2.3860    -5.1060 ho         1 03U       0.231000
@<TRIPOS>BOND
     1     1     2 1   
     2     1     3 1   
     3     1    28 1   
     4     2     4 1   
     5     2     7 1   
     6     3     5 1   
     7     3    29 1   
     8     4     6 1   
     9     4    30 1   
    10     5     6 1   
    11     5    13 1   
    12     6    31 1   
    13     7     8 1   
    14     7     9 1   
    15     8    10 1   
    16     8    14 1   
    17     9    11 1   
    18     9    32 1   
    19    10    12 1   
    20    10    33 1   
    21    11    12 1   
    22    11    34 1   
    23    12    18 1   
    24    14    15 1   
    25    14    16 1   
    26    15    17 1   
    27    17    35 1   
    28    17    36 1   
    29    17    37 1   
    30    18    19 1   
    31    18    38 1   
    32    19    20 1   
    33    19    21 1   
    34    20    22 1   
    35    20    23 1   
    36    22    25 1   
    37    22    26 1   
    38    23    24 1   
    39    25    44 1   
    40    26    27 1   
    41    26    39 1   
    42    26    40 1   
    43    27    39 1   
    44    27    41 1   
    45    27    42 1   
    46    27    43 1   
@<TRIPOS>SUBSTRUCTURE
     1 03U         1 TEMP              0 ****  ****    0 ROOT
