@<TRIPOS>MOLECULE
03U
   44    45     1     0     0
SMALL
bcc


@<TRIPOS>ATOM
      1 C1           0.0000     0.0000     0.0000 ca         1 03U      -0.037500
      2 C2           1.3940     0.0000     0.0000 cp         1 03U      -0.055000
      3 C3          -0.6880    -0.0020     1.1960 ca         1 03U      -0.137500
      4 C4           2.0880     0.0000     1.2110 ca         1 03U      -0.037500
      5 C5           0.0060    -0.0070     2.3950 ca         1 03U       0.109900
      6 C6           1.3910    -0.0000     2.4010 ca         1 03U      -0.137500
      7 C7           2.1380     0.0010    -1.2810 cp         1 03U       0.030000
      8 C8           3.0450    -1.0350    -1.5720 ca         1 03U      -0.126600
      9 C9           1.9380     1.0230    -2.2050 ca         1 03U      -0.096000
     10 C10          3.7400    -1.0250    -2.7820 ca         1 03U      -0.051000
     11 C11          2.6290     1.0230    -3.3990 ca         1 03U      -0.089000
     12 C12          3.5320     0.0040    -3.6870 ca         1 03U      -0.114400
     13 F13         -0.6720    -0.0060     3.5640 f          1 03U      -0.132900
     14 C14          3.2620    -2.1260    -0.6030 c          1 03U       0.714700
     15 O15          4.2240    -3.0430    -0.8240 os         1 03U      -0.407900
     16 O16          2.5710    -2.1980     0.3950 o          1 03U      -0.585000
     17 C17          4.3790    -4.0880     0.1720 c3         1 03U       0.268700
     18 N18          4.2280     0.0140    -4.9000 ns         1 03U      -0.031100
     19 C19          5.4850    -0.4690    -4.9600 c          1 03U       0.592300
     20 C20          6.1750    -0.5650    -6.2550 ce         1 03U      -0.165900
     21 O21          6.0480    -0.8260    -3.9420 o          1 03U      -0.624100
     22 C22          7.4460    -1.0550    -6.3140 c2         1 03U       0.230900
     23 C23          5.5130    -0.1440    -7.4520 cg         1 03U       0.186500
     24 N24          4.9710     0.1960    -8.3910 n1         1 03U      -0.375800
     25 O25          8.0680    -1.4490    -5.1900 oh         1 03U      -0.451100
     26 C26          8.1540    -1.1520    -7.6410 c3         1 03U      -0.247200
     27 C27          9.0140     0.0950    -7.8530 c3         1 03U       0.296900
     28 H1          -0.5420    -0.0000    -0.9380 ha         1 03U       0.107000
     29 H3          -1.7710    -0.0020     1.1970 ha         1 03U       0.117000
     30 H4           3.1710     0.0000     1.2140 ha         1 03U       0.107000
     31 H6           1.9280    -0.0000     3.3420 ha         1 03U       0.117000
     32 H9           1.2370     1.8200    -1.9880 ha         1 03U       0.116000
     33 H10          4.4390    -1.8190    -3.0120 ha         1 03U       0.155000
     34 H11          2.4720     1.8190    -4.1160 ha         1 03U       0.108000
     35 H17          4.7660    -3.6580     1.0880 h1         1 03U       0.001700
     36 H17A         3.4170    -4.5470     0.3660 h1         1 03U       0.001700
     37 H17B         5.0700    -4.8370    -0.1950 h1         1 03U       0.001700
     38 HN18         3.7410     0.1980    -5.7550 hn         1 03U       0.174500
     39 H26          7.4270    -1.3200    -8.4260 hc         1 03U       0.025700
     40 H26A         8.6880    -0.2290    -7.8340 hc         1 03U       0.025700
     41 H27          9.6150     0.2730    -6.9700 hc         1 03U      -0.003300
     42 H27A         9.6640    -0.0560    -8.7070 hc         1 03U      -0.003300
     43 H27B         8.3740     0.9490    -8.0330 hc         1 03U      -0.003300
     44 H171         8.4310    -0.6970    -4.7510 ho         1 03U       0.422000
@<TRIPOS>BOND
     1     1     2 ar  
     2     1     3 ar  
     3     1    28 1   
     4     2     4 ar  
     5     2     7 1   
     6     3     5 ar  
     7     3    29 1   
     8     4     6 ar  
     9     4    30 1   
    10     5     6 ar  
    11     5    13 1   
    12     6    31 1   
    13     7     8 ar  
    14     7     9 ar  
    15     8    10 ar  
    16     8    14 1   
    17     9    11 ar  
    18     9    32 1   
    19    10    12 ar  
    20    10    33 1   
    21    11    12 ar  
    22    11    34 1   
    23    12    18 1   
    24    14    15 1   
    25    14    16 2   
    26    15    17 1   
    27    17    35 1   
    28    17    36 1   
    29    17    37 1   
    30    18    19 1   
    31    18    38 1   
    32    19    20 1   
    33    19    21 2   
    34    20    22 2   
    35    20    23 1   
    36    22    25 1   
    37    22    26 1   
    38    23    24 3   
    39    25    44 1   
    40    26    27 1   
    41    26    39 1   
    42    26    40 1   
    43    27    41 1   
    44    27    42 1   
    45    27    43 1   
@<TRIPOS>SUBSTRUCTURE
     1 03U         1 TEMP              0 ****  ****    0 ROOT
