@<TRIPOS>MOLECULE
molecule
   44    45     1     0     0
SMALL
bcc


@<TRIPOS>ATOM
      1 C1           0.0000     0.0000     0.0000 ca         1 03U      -0.063500
      2 C2           1.3940     0.0000     0.0000 cp         1 03U      -0.058000
      3 C3          -0.6880    -0.0020     1.1960 ca         1 03U      -0.172500
      4 C4           2.0880     0.0000     1.2110 ca         1 03U      -0.063500
      5 C5           0.0060    -0.0070     2.3950 ca         1 03U       0.139900
      6 C6           1.3910    -0.0000     2.4010 ca         1 03U      -0.172500
      7 C7           2.1380     0.0010    -1.2810 cp         1 03U       0.003000
      8 C8           3.0450    -1.0350    -1.5720 ca         1 03U      -0.105600
      9 C9           1.9380     1.0230    -2.2050 ca         1 03U      -0.110000
     10 C10          3.7400    -1.0250    -2.7820 ca         1 03U      -0.079000
     11 C11          2.6290     1.0230    -3.3990 ca         1 03U      -0.142000
     12 C12          3.5320     0.0040    -3.6870 ca         1 03U       0.045600
     13 F13         -0.6720    -0.0060     3.5640 f          1 03U      -0.145900
     14 C14          3.2620    -2.1260    -0.6030 c          1 03U       0.646700
     15 O15          4.2240    -3.0430    -0.8240 os         1 03U      -0.421900
     16 O16          2.5710    -2.1980     0.3950 o          1 03U      -0.542000
     17 C17          4.3790    -4.0880     0.1720 c3         1 03U       0.136700
     18 N18          4.2280     0.0140    -4.9000 ns         1 03U      -0.455100
     19 C19          5.4850    -0.4690    -4.9600 c          1 03U       0.673300
     20 C20          6.1750    -0.5650    -6.2550 ce         1 03U      -0.187900
     21 O21          6.0480    -0.8260    -3.9420 o          1 03U      -0.568100
     22 C22          7.4460    -1.0550    -6.3140 c2         1 03U       0.274900
     23 C23          5.5130    -0.1440    -7.4520 cg         1 03U       0.204500
     24 N24          4.9920     0.1720    -8.4110 n1         1 03U      -0.371800
     25 O25          8.0680    -1.4490    -5.1900 oh         1 03U      -0.492100
     26 C26          8.1540    -1.1520    -7.6410 c3         1 03U      -0.450200
     27 C27          9.0140     0.0950    -7.8530 c3         1 03U       0.019900
     28 H1          -0.5420     0.0000    -0.9380 ha         1 03U       0.136500
     29 H3          -1.7710    -0.0020     1.1970 ha         1 03U       0.142500
     30 H4           3.1710    -0.0000     1.2140 ha         1 03U       0.136500
     31 H6           1.9280    -0.0000     3.3420 ha         1 03U       0.142500
     32 H9           1.2370     1.8200    -1.9880 ha         1 03U       0.145000
     33 H10          4.4390    -1.8190    -3.0120 ha         1 03U       0.178000
     34 H11          2.4720     1.8190    -4.1160 ha         1 03U       0.134000
     35 H17          5.3750    -4.5090     0.1010 h1         1 03U       0.050700
     36 H17A         3.6450    -4.8650    -0.0020 h1         1 03U       0.050700
     37 H17B         4.2330    -3.6690     1.1600 h1         1 03U       0.050700
     38 HN18         4.0170     0.7060    -5.5920 hn         1 03U       0.321500
     39 H26          8.1660    -0.1780    -8.1160 hc         1 03U       0.173200
     40 H26A         7.6330    -1.8580    -8.2770 hc         1 03U       0.173200
     41 H27          8.3920     0.9790    -7.7900 hc         1 03U       0.056700
     42 H27A         9.7820     0.1380    -7.0900 hc         1 03U       0.056700
     43 H27B         9.4790     0.0500    -8.8310 hc         1 03U       0.056700
     44 H171         8.0010    -2.3860    -5.1060 ho         1 03U       0.455000
@<TRIPOS>BOND
     1     1     3 ar
     2     1    28 1
     3     2     1 ar
     4     3    29 1
     5     4     2 ar
     6     4     6 ar
     7     4    30 1
     8     5     3 ar
     9     5    13 1
    10     6     5 ar
    11     6    31 1
    12     7     2 1
    13     7     8 ar
    14     8    14 1
    15     9     7 ar
    16     9    32 1
    17    10     8 ar
    18    10    33 1
    19    11     9 ar
    20    11    12 ar
    21    11    34 1
    22    12    10 ar
    23    14    16 2
    24    14    15 1
    25    15    17 1
    26    17    35 1
    27    17    36 1
    28    17    37 1
    29    18    12 1
    30    18    38 1
    31    19    18 1
    32    19    20 1
    33    20    22 2
    34    21    19 2
    35    22    26 1
    36    22    25 1
    37    23    20 1
    38    24    23 3
    39    26    27 1
    40    26    39 1
    41    26    40 1
    42    27    41 1
    43    27    42 1
    44    27    43 1
    45    25    44 1
@<TRIPOS>SUBSTRUCTURE
     1 03U         1 TEMP              0 ****  ****    0 ROOT
