@<TRIPOS>MOLECULE
03U
   44    45     1     0     0
SMALL
bcc


@<TRIPOS>ATOM
      1 C1          -0.1360     0.1170    -0.0580 ca         1 03U      -0.090500
      2 C2           1.2550    -0.0510    -0.0910 cp         1 03U      -0.061000
      3 C3          -0.7970     0.3340     1.1470 ca         1 03U      -0.166500
      4 C4           1.9820     0.0020     1.1070 ca         1 03U      -0.090500
      5 C5          -0.0580     0.3890     2.3430 ca         1 03U       0.130900
      6 C6           1.3400     0.2240     2.3200 ca         1 03U      -0.166500
      7 C7           1.9480    -0.3140    -1.3510 cp         1 03U      -0.022000
      8 C8           1.7630     0.4720    -2.4980 ca         1 03U      -0.069600
      9 C9           2.8370    -1.3970    -1.4300 ca         1 03U      -0.100000
     10 C10          2.4240     0.1720    -3.6890 ca         1 03U      -0.149000
     11 C11          3.5120    -1.7060    -2.6030 ca         1 03U      -0.133000
     12 C12          3.3140    -0.9240    -3.7630 ca         1 03U       0.072600
     13 F13         -0.6930     0.6000     3.5200 f          1 03U      -0.139900
     14 C14          0.8960     1.6700    -2.4840 c          1 03U       0.643700
     15 O15         -0.3620     1.4350    -2.9780 os         1 03U      -0.438900
     16 O16          1.1710     2.8160    -2.1300 o          1 03U      -0.518000
     17 C17         -1.2490     2.5540    -3.0220 c3         1 03U       0.122700
     18 N18          3.9890    -1.1590    -4.9710 ns         1 03U      -0.455100
     19 C19          4.6360    -2.3340    -5.3370 c          1 03U       0.700300
     20 C20          5.2340    -2.3460    -6.7110 ce         1 03U      -0.128900
     21 O21          4.7640    -3.3100    -4.5800 o          1 03U      -0.567100
     22 C22          4.5650    -2.0000    -7.8440 c2         1 03U       0.167900
     23 C23          6.5740    -2.8050    -6.7620 cg         1 03U       0.210500
     24 N24          7.6750    -3.1800    -6.7770 n1         1 03U      -0.349800
     25 O25          3.2830    -1.5260    -7.7160 oh         1 03U      -0.501100
     26 C26          5.1190    -2.1180    -9.2260 c3         1 03U      -0.094200
     27 C27          5.2280    -0.7750    -9.9060 c3         1 03U      -0.099100
     28 H1          -0.7110     0.0800    -0.9980 ha         1 03U       0.148000
     29 H3          -1.8880     0.4630     1.1740 ha         1 03U       0.149500
     30 H4           3.0760    -0.1250     1.0860 ha         1 03U       0.148000
     31 H6           1.9100     0.2730     3.2590 ha         1 03U       0.149500
     32 H9           2.9980    -2.0220    -0.5370 ha         1 03U       0.146000
     33 H10          2.2430     0.8080    -4.5710 ha         1 03U       0.141000
     34 H11          4.1970    -2.5710    -2.6190 ha         1 03U       0.178000
     35 H17         -0.8240     3.3520    -3.6760 h1         1 03U       0.051700
     36 H17A        -2.1890     2.1280    -3.4510 h1         1 03U       0.051700
     37 H17B        -1.4120     2.9510    -1.9910 h1         1 03U       0.051700
     38 HN18         3.8120    -0.4990    -5.6980 hn         1 03U       0.326500
     39 H26          6.1300    -2.6060    -9.1930 hc         1 03U       0.080700
     40 H26A         4.4440    -2.7950    -9.8200 hc         1 03U       0.080700
     41 H27          4.2350    -0.2650    -9.9520 hc         1 03U       0.048700
     42 H27A         5.6040    -0.9110   -10.9490 hc         1 03U       0.048700
     43 H27B         5.9400    -0.1110    -9.3590 hc         1 03U       0.048700
     44 H171         2.9070    -1.4130    -8.6040 ho         1 03U       0.441000
@<TRIPOS>BOND
     1     1     2 ar  
     2     1     3 ar  
     3     1    28 1   
     4     2     4 ar  
     5     2     7 1   
     6     3     5 ar  
     7     3    29 1   
     8     4     6 ar  
     9     4    30 1   
    10     5     6 ar  
    11     5    13 1   
    12     6    31 1   
    13     7     8 ar  
    14     7     9 ar  
    15     8    10 ar  
    16     8    14 1   
    17     9    11 ar  
    18     9    32 1   
    19    10    12 ar  
    20    10    33 1   
    21    11    12 ar  
    22    11    34 1   
    23    12    18 1   
    24    14    15 1   
    25    14    16 2   
    26    15    17 1   
    27    17    35 1   
    28    17    36 1   
    29    17    37 1   
    30    18    19 1   
    31    18    38 1   
    32    19    20 1   
    33    19    21 2   
    34    20    22 2   
    35    20    23 1   
    36    22    25 1   
    37    22    26 1   
    38    23    24 3   
    39    25    44 1   
    40    26    27 1   
    41    26    39 1   
    42    26    40 1   
    43    27    41 1   
    44    27    42 1   
    45    27    43 1   
@<TRIPOS>SUBSTRUCTURE
     1 03U         1 TEMP              0 ****  ****    0 ROOT
