@<TRIPOS>MOLECULE
03V
   19    20     1     0     0
SMALL
bcc


@<TRIPOS>ATOM
      1 C1           0.0000     0.0000     0.0000 ca         1 03V      -0.132000
      2 O1           2.0690     0.0010    -1.1820 oh         1 03V      -0.503100
      3 C2           1.3980     0.0000     0.0000 ca         1 03V       0.126100
      4 C3           2.0990     0.0000     1.1730 ca         1 03V      -0.135000
      5 C4           1.4070    -0.0010     2.3950 ca         1 03V      -0.016000
      6 C5          -0.0100    -0.0010     2.3920 ca         1 03V      -0.051000
      7 C7          -0.7000    -0.0010     1.1670 ca         1 03V      -0.068000
      8 C8          -0.7010    -0.0030     3.6150 ca         1 03V      -0.083000
      9 C9          -0.0030    -0.0040     4.7840 ca         1 03V      -0.104000
     10 C10          1.3900    -0.0040     4.7870 ca         1 03V      -0.094000
     11 C11          2.0940    -0.0020     3.6210 ca         1 03V      -0.093000
     12 H1          -0.5340     0.0010    -0.9430 ha         1 03V       0.112000
     13 HO1          2.2580    -0.8870    -1.4360 ho         1 03V       0.402000
     14 H3           3.1820     0.0000     1.1610 ha         1 03V       0.118000
     15 H7          -1.7830    -0.0010     1.1510 ha         1 03V       0.107000
     16 H8          -1.7850    -0.0030     3.6280 ha         1 03V       0.105000
     17 H9          -0.5390    -0.0050     5.7250 ha         1 03V       0.101000
     18 H10          1.9220    -0.0040     5.7310 ha         1 03V       0.101000
     19 H11          3.1770    -0.0020     3.6390 ha         1 03V       0.107000
@<TRIPOS>BOND
     1     1     3 ar  
     2     1     7 ar  
     3     1    12 1   
     4     2     3 1   
     5     2    13 1   
     6     3     4 ar  
     7     4     5 ar  
     8     4    14 1   
     9     5     6 ar  
    10     5    11 ar  
    11     6     7 ar  
    12     6     8 ar  
    13     7    15 1   
    14     8     9 ar  
    15     8    16 1   
    16     9    10 ar  
    17     9    17 1   
    18    10    11 ar  
    19    10    18 1   
    20    11    19 1   
@<TRIPOS>SUBSTRUCTURE
     1 03V         1 TEMP              0 ****  ****    0 ROOT
