@<TRIPOS>MOLECULE
03V
   19    20     1     0     0
SMALL
bcc


@<TRIPOS>ATOM
      1 C1           0.0350    -0.1920    -0.0420 ca         1 03V      -0.194000
      2 O1           2.1850    -0.0910    -1.2000 oh         1 03V      -0.498100
      3 C2           1.4540    -0.0980    -0.0320 ca         1 03V       0.120100
      4 C3           2.1590    -0.0100     1.1550 ca         1 03V      -0.159000
      5 C4           1.4550    -0.0130     2.3860 ca         1 03V      -0.003000
      6 C5           0.0390    -0.1060     2.3860 ca         1 03V      -0.067000
      7 C7          -0.6510    -0.1950     1.1460 ca         1 03V      -0.080000
      8 C8          -0.6560    -0.1090     3.6260 ca         1 03V      -0.107000
      9 C9           0.0310    -0.0220     4.8110 ca         1 03V      -0.137000
     10 C10          1.4440     0.0710     4.8120 ca         1 03V      -0.118000
     11 C11          2.1410     0.0760     3.6300 ca         1 03V      -0.126000
     12 H1          -0.4940    -0.2610    -1.0030 ha         1 03V       0.134000
     13 HO1          1.5640    -0.1580    -1.9390 ho         1 03V       0.418000
     14 H3           3.2560     0.0620     1.1480 ha         1 03V       0.151000
     15 H7          -1.7490    -0.2670     1.1570 ha         1 03V       0.135000
     16 H8          -1.7540    -0.1810     3.6140 ha         1 03V       0.131000
     17 H9          -0.5040    -0.0230     5.7720 ha         1 03V       0.132000
     18 H10          1.9730     0.1400     5.7740 ha         1 03V       0.132000
     19 H11          3.2390     0.1480     3.6200 ha         1 03V       0.135000
@<TRIPOS>BOND
     1     1     3 ar  
     2     1     7 ar  
     3     1    12 1   
     4     2     3 1   
     5     2    13 1   
     6     3     4 ar  
     7     4     5 ar  
     8     4    14 1   
     9     5     6 ar  
    10     5    11 ar  
    11     6     7 ar  
    12     6     8 ar  
    13     7    15 1   
    14     8     9 ar  
    15     8    16 1   
    16     9    10 ar  
    17     9    17 1   
    18    10    11 ar  
    19    10    18 1   
    20    11    19 1   
@<TRIPOS>SUBSTRUCTURE
     1 03V         1 TEMP              0 ****  ****    0 ROOT
