@<TRIPOS>MOLECULE
molecule
   19    20     1     0     0
SMALL
bcc


@<TRIPOS>ATOM
      1 C1           0.0000     0.0000     0.0000 ca         1 03V      -0.148000
      2 O1           2.0690     0.0010    -1.1820 oh         1 03V      -0.524100
      3 C2           1.3980     0.0000     0.0000 ca         1 03V       0.107100
      4 C3           2.0990     0.0000     1.1730 ca         1 03V      -0.146000
      5 C4           1.4070    -0.0010     2.3950 ca         1 03V      -0.024000
      6 C5          -0.0100    -0.0010     2.3920 ca         1 03V      -0.044000
      7 C7          -0.7000    -0.0010     1.1670 ca         1 03V      -0.103000
      8 C8          -0.7010    -0.0030     3.6150 ca         1 03V      -0.113000
      9 C9          -0.0030    -0.0040     4.7840 ca         1 03V      -0.127000
     10 C10          1.3900    -0.0040     4.7870 ca         1 03V      -0.122000
     11 C11          2.0940    -0.0020     3.6210 ca         1 03V      -0.117000
     12 H1          -0.5340     0.0010    -0.9430 ha         1 03V       0.139000
     13 HO1          2.2580    -0.8870    -1.4360 ho         1 03V       0.419000
     14 H3           3.1820     0.0000     1.1610 ha         1 03V       0.143000
     15 H7          -1.7830    -0.0010     1.1510 ha         1 03V       0.136000
     16 H8          -1.7850    -0.0030     3.6280 ha         1 03V       0.133000
     17 H9          -0.5390    -0.0050     5.7250 ha         1 03V       0.129000
     18 H10          1.9220    -0.0040     5.7310 ha         1 03V       0.129000
     19 H11          3.1770    -0.0020     3.6390 ha         1 03V       0.134000
@<TRIPOS>BOND
     1     3     1 ar  
     2     1     7 ar  
     3     1    12 1   
     4     2     3 1   
     5     2    13 1   
     6     4     3 ar  
     7     4     5 ar  
     8     4    14 1   
     9    11     5 ar  
    10     5     6 ar  
    11     6     8 ar  
    12     6     7 ar  
    13     7    15 1   
    14     9     8 ar  
    15     8    16 1   
    16    10     9 ar  
    17     9    17 1   
    18    11    10 ar  
    19    10    18 1   
    20    11    19 1   
@<TRIPOS>SUBSTRUCTURE
     1 03V         1 TEMP              0 ****  ****    0 ROOT
