@<TRIPOS>MOLECULE
03W
   15    14     1     0     0
SMALL
bcc


@<TRIPOS>ATOM
      1 C1           0.0300    -0.0990    -0.2450 c3         1 03W       0.298900
      2 O1          -0.3980    -1.2620     0.4360 oh         1 03W      -0.637800
      3 C2           1.5560    -0.0180    -0.0480 c3         1 03W       0.117100
      4 O2           1.8470     0.1350     1.3330 oh         1 03W      -0.605800
      5 C3           2.1240     1.2170    -0.7520 c3         1 03W       0.127400
      6 O3           2.2390     0.8790    -2.1240 oh         1 03W      -0.604800
      7 O5          -0.6750     0.9540     0.3600 oh         1 03W      -0.637800
      8 HO1         -1.3620    -1.2810     0.4020 ho         1 03W       0.423500
      9 H2           2.0290    -0.9540    -0.4530 h1         1 03W       0.076700
     10 HO2          1.5240    -0.6670     1.7660 ho         1 03W       0.425000
     11 H3           1.4320     2.0900    -0.6190 h1         1 03W       0.046700
     12 H3A          3.1310     1.4650    -0.3230 h1         1 03W       0.046700
     13 HO3          2.5970     1.6560    -2.5680 ho         1 03W       0.409000
     14 HO5         -0.2820     1.1150     1.2300 ho         1 03W       0.423500
     15 H1          -0.2560    -0.1000    -1.3310 h2         1 03W       0.092700
@<TRIPOS>BOND
     1     1     2 1   
     2     1     3 1   
     3     1     7 1   
     4     1    15 1   
     5     2     8 1   
     6     3     4 1   
     7     3     5 1   
     8     3     9 1   
     9     4    10 1   
    10     5     6 1   
    11     5    11 1   
    12     5    12 1   
    13     6    13 1   
    14     7    14 1   
@<TRIPOS>SUBSTRUCTURE
     1 03W         1 TEMP              0 ****  ****    0 ROOT
