@<TRIPOS>MOLECULE
molecule
   15    14     1     0     0
SMALL
bcc


@<TRIPOS>ATOM
      1 C1           0.0000     0.0000     0.0000 c3         1 03W       0.330900
      2 O1          -0.4760    -1.1040     0.7730 oh         1 03W      -0.614800
      3 C2           1.5290     0.0000     0.0000 c3         1 03W       0.168100
      4 O2           2.0060     0.0000     1.3480 oh         1 03W      -0.592800
      5 C3           2.0400     1.2490    -0.7210 c3         1 03W       0.129400
      6 O3           3.4640     1.1920    -0.8240 oh         1 03W      -0.608800
      7 O5          -0.4770    -0.1170    -1.3420 oh         1 03W      -0.614800
      8 HO1         -1.3220    -0.8930     1.1340 ho         1 03W       0.405500
      9 H2           1.8910    -0.8840    -0.5110 h1         1 03W       0.068700
     10 HO2          2.5800    -0.7370     1.4780 ho         1 03W       0.418000
     11 H3           1.6080     1.2950    -1.7130 h1         1 03W       0.035700
     12 H3A          1.7530     2.1310    -0.1610 h1         1 03W       0.035700
     13 HO3          3.7730     1.9320    -1.3190 ho         1 03W       0.406000
     14 HO5         -1.4150    -0.0190    -1.3520 ho         1 03W       0.405500
     15 H1          -0.3610     0.9260     0.4320 h2         1 03W       0.027700
@<TRIPOS>BOND
     1     1     2 1   
     2     1     3 1   
     3     1     7 1   
     4     2     8 1   
     5     3     5 1   
     6     3     4 1   
     7     3     9 1   
     8     4    10 1   
     9     6     5 1   
    10     5    11 1   
    11     5    12 1   
    12     6    13 1   
    13     7    14 1   
    14     1    15 1   
@<TRIPOS>SUBSTRUCTURE
     1 03W         1 TEMP              0 ****  ****    0 ROOT
