@<TRIPOS>MOLECULE
03X
   64    68     1     0     0
SMALL
bcc


@<TRIPOS>ATOM
      1 N1           0.0000     0.0000     0.0000 nb         1 03X      -0.610000
      2 N3          -3.4930     3.2920   -11.5850 na         1 03X      -0.169400
      3 C4           3.4480     0.0000    -1.2240 ca         1 03X      -0.167000
      4 C5           2.0460    -0.0010    -1.2280 ca         1 03X      -0.159300
      5 C6           1.3390     0.0000     0.0000 ca         1 03X       0.418600
      6 C7          -0.6880    -0.0000    -1.1170 ca         1 03X       0.451200
      7 C8          -0.0670    -0.0010    -2.3600 ca         1 03X      -0.342300
      8 C10          1.1890     0.1090    -4.7580 ca         1 03X       0.048100
      9 C13          0.7450     1.3570    -5.1760 ca         1 03X       0.115900
     10 C15         -0.3570     0.3340    -7.0460 ca         1 03X      -0.054400
     11 C17          0.8640    -1.0240    -5.4890 ca         1 03X      -0.069000
     12 C20         -2.4780     3.4530   -10.7160 cc         1 03X       0.036800
     13 C21         -3.3450     1.3480   -10.5030 c          1 03X       0.618700
     14 C22         -1.6500     4.7000   -10.5490 c3         1 03X       0.081100
     15 C24         -5.0940     1.4900   -12.2050 ca         1 03X      -0.076400
     16 C26         -7.3120     1.7160   -13.0880 ca         1 03X      -0.085000
     17 C28         -6.0370    -0.2630   -13.5420 ca         1 03X      -0.085000
     18 C11          3.3520     0.0010     3.5560 c3         1 03X       0.239700
     19 C2           3.4250     0.0000     1.1810 ca         1 03X       0.154100
     20 C3           2.0590     0.0000     1.2050 ca         1 03X      -0.258300
     21 C1           4.1210     0.0010    -0.0360 ca         1 03X       0.126100
     22 O2           5.4810     0.0010    -0.0330 os         1 03X      -0.294900
     23 C12          6.1330     0.0010    -1.3050 c3         1 03X       0.239700
     24 C9           1.3150    -0.0010    -2.4370 ca         1 03X       0.188100
     25 O1           1.9480    -0.0010    -3.6350 os         1 03X      -0.202200
     26 C14         -0.0270     1.4690    -6.3180 ca         1 03X      -0.135000
     27 F1           1.0650     2.4610    -4.4660 f          1 03X      -0.116900
     28 C16          0.0930    -0.9120    -6.6300 ca         1 03X      -0.134000
     29 N2          -1.1380     0.4460    -8.2030 ns         1 03X      -0.008100
     30 C18         -1.0310     1.5380    -8.9850 c          1 03X       0.636300
     31 O4          -0.1880     2.3810    -8.7420 o          1 03X      -0.639100
     32 C19         -2.3220     2.2800   -10.0020 cd         1 03X      -0.389400
     33 C23         -3.9630     4.3120   -12.5270 c3         1 03X       0.204100
     34 N4          -4.0280     2.0070   -11.4610 n          1 03X       0.066600
     35 C25         -6.2620     2.2280   -12.3530 ca         1 03X      -0.101500
     36 C27         -7.2020     0.4690   -13.6790 ca         1 03X      -0.097000
     37 C29         -4.9840     0.2420   -12.8030 ca         1 03X      -0.101500
     38 H4           3.9950     0.0010    -2.1600 ha         1 03X       0.138000
     39 H7          -1.7700    -0.0000    -1.0690 h4         1 03X      -0.025900
     40 H8          -0.6620    -0.0010    -3.2650 ha         1 03X       0.130000
     41 H17          1.2130    -1.9960    -5.1640 ha         1 03X       0.121000
     42 H22         -2.0680     5.4950   -11.1560 hc         1 03X       0.022367
     43 H22A        -0.6320     4.5030   -10.8620 hc         1 03X       0.022367
     44 H22B        -1.6550     5.0010    -9.5080 hc         1 03X       0.022367
     45 H26         -8.2250     2.2890   -13.2010 ha         1 03X       0.107000
     46 H28         -5.9540    -1.2370   -14.0080 ha         1 03X       0.107000
     47 H11          2.7440    -0.8940     3.5980 h1         1 03X      -0.000300
     48 H11A         2.7130     0.8750     3.6080 h1         1 03X      -0.000300
     49 H11B         4.0420     0.0080     4.3910 h1         1 03X      -0.000300
     50 H3           1.5350    -0.0760     2.1500 ha         1 03X       0.140000
     51 H12          7.2060    -0.0020    -1.1610 h1         1 03X      -0.000967
     52 H12A         5.8400    -0.8820    -1.8610 h1         1 03X      -0.000967
     53 H12B         5.8460     0.8870    -1.8580 h1         1 03X      -0.000967
     54 H14         -0.3760     2.4420    -6.6430 ha         1 03X       0.158000
     55 H16         -0.1620    -1.7980    -7.1990 ha         1 03X       0.117000
     56 HN2         -1.7910    -0.2750    -8.4380 hn         1 03X       0.199500
     57 H23         -4.3980     3.8300   -13.3940 h1         1 03X       0.023367
     58 H23A        -3.1290     4.9290   -12.8370 h1         1 03X       0.023367
     59 H23B        -4.7100     4.9310   -12.0450 h1         1 03X       0.023367
     60 H25         -6.3480     3.2040   -11.8910 ha         1 03X       0.118000
     61 H27         -8.0270     0.0700   -14.2570 ha         1 03X       0.106000
     62 H29         -4.0720    -0.3330   -12.6970 ha         1 03X       0.118000
     63 O3           4.1170     0.0020     2.3500 os         1 03X      -0.292900
     64 O5          -3.5350     0.2060   -10.1270 o          1 03X      -0.703500
@<TRIPOS>BOND
     1     1     5 ar  
     2     1     6 ar  
     3     2    12 1   
     4     2    33 1   
     5     2    34 1   
     6     3     4 ar  
     7     3    21 ar  
     8     3    38 1   
     9     4     5 ar  
    10     4    24 ar  
    11     5    20 ar  
    12     6     7 ar  
    13     6    39 1   
    14     7    24 ar  
    15     7    40 1   
    16     8     9 ar  
    17     8    11 ar  
    18     8    25 1   
    19     9    26 ar  
    20     9    27 1   
    21    10    26 ar  
    22    10    28 ar  
    23    10    29 1   
    24    11    28 ar  
    25    11    41 1   
    26    12    14 1   
    27    12    32 2   
    28    13    32 1   
    29    13    34 1   
    30    13    64 2   
    31    14    42 1   
    32    14    43 1   
    33    14    44 1   
    34    15    34 1   
    35    15    35 ar  
    36    15    37 ar  
    37    16    35 ar  
    38    16    36 ar  
    39    16    45 1   
    40    17    36 ar  
    41    17    37 ar  
    42    17    46 1   
    43    18    47 1   
    44    18    48 1   
    45    18    49 1   
    46    18    63 1   
    47    19    20 ar  
    48    19    21 ar  
    49    19    63 1   
    50    20    50 1   
    51    21    22 1   
    52    22    23 1   
    53    23    51 1   
    54    23    52 1   
    55    23    53 1   
    56    24    25 1   
    57    26    54 1   
    58    28    55 1   
    59    29    30 1   
    60    29    56 1   
    61    30    31 2   
    62    30    32 1   
    63    33    57 1   
    64    33    58 1   
    65    33    59 1   
    66    35    60 1   
    67    36    61 1   
    68    37    62 1   
@<TRIPOS>SUBSTRUCTURE
     1 03X         1 TEMP              0 ****  ****    0 ROOT
