@<TRIPOS>MOLECULE
molecule
   64    68     1     0     0
SMALL
bcc


@<TRIPOS>ATOM
      1 N1           0.0000     0.0000     0.0000 nb         1 03X      -0.712000
      2 N3          -3.4930     3.2920   -11.5850 na         1 03X      -0.441400
      3 C4           3.4480     0.0000    -1.2240 ca         1 03X      -0.174000
      4 C5           2.0460    -0.0010    -1.2280 ca         1 03X      -0.161300
      5 C6           1.3390     0.0000     0.0000 ca         1 03X       0.456600
      6 C7          -0.6880    -0.0000    -1.1170 ca         1 03X       0.463200
      7 C8          -0.0670    -0.0010    -2.3600 ca         1 03X      -0.353300
      8 C10          1.1890     0.1090    -4.7580 ca         1 03X       0.033100
      9 C13          0.7450     1.3570    -5.1760 ca         1 03X       0.145900
     10 C15         -0.3570     0.3340    -7.0460 ca         1 03X       0.101600
     11 C17          0.8640    -1.0240    -5.4890 ca         1 03X      -0.089000
     12 C20         -2.4780     3.4530   -10.7160 cc         1 03X       0.188800
     13 C21         -3.3450     1.3480   -10.5030 c          1 03X       0.698700
     14 C22         -1.6500     4.7000   -10.5490 c3         1 03X      -0.035900
     15 C24         -5.0940     1.4900   -12.2050 ca         1 03X       0.058600
     16 C26         -7.3120     1.7160   -13.0880 ca         1 03X      -0.115500
     17 C28         -6.0370    -0.2630   -13.5420 ca         1 03X      -0.115500
     18 C11          3.3520     0.0010     3.5560 c3         1 03X       0.123700
     19 C2           3.4250     0.0000     1.1810 ca         1 03X       0.152100
     20 C3           2.0590     0.0000     1.2050 ca         1 03X      -0.263300
     21 C1           4.1210     0.0010    -0.0360 ca         1 03X       0.120100
     22 O2           5.4810     0.0010    -0.0330 os         1 03X      -0.314900
     23 C12          6.1330     0.0010    -1.3050 c3         1 03X       0.125700
     24 C9           1.3150    -0.0010    -2.4370 ca         1 03X       0.181100
     25 O1           1.9480    -0.0010    -3.6350 os         1 03X      -0.230200
     26 C14         -0.0270     1.4690    -6.3180 ca         1 03X      -0.171000
     27 F1           1.0650     2.4610    -4.4660 f          1 03X      -0.121900
     28 C16          0.0930    -0.9120    -6.6300 ca         1 03X      -0.170000
     29 N2          -1.1380     0.4460    -8.2030 ns         1 03X      -0.453100
     30 C18         -1.0310     1.5380    -8.9850 c          1 03X       0.704300
     31 O4          -0.1880     2.3810    -8.7420 o          1 03X      -0.595100
     32 C19         -2.3220     2.2800   -10.0020 cd         1 03X      -0.362400
     33 C23         -3.9630     4.3120   -12.5270 c3         1 03X       0.234100
     34 N4          -4.0280     2.0070   -11.4610 n          1 03X      -0.210400
     35 C25         -6.2620     2.2280   -12.3530 ca         1 03X      -0.129500
     36 C27         -7.2020     0.4690   -13.6790 ca         1 03X      -0.129000
     37 C29         -4.9840     0.2420   -12.8030 ca         1 03X      -0.129500
     38 H4           3.9950     0.0010    -2.1600 ha         1 03X       0.158000
     39 H7          -1.7700    -0.0000    -1.0690 h4         1 03X       0.022100
     40 H8          -0.6620    -0.0010    -3.2650 ha         1 03X       0.146000
     41 H17          1.2130    -1.9960    -5.1640 ha         1 03X       0.154000
     42 H22         -2.0680     5.4950   -11.1560 hc         1 03X       0.065033
     43 H22A        -0.6320     4.5030   -10.8620 hc         1 03X       0.065033
     44 H22B        -1.6550     5.0010    -9.5080 hc         1 03X       0.065033
     45 H26         -8.2250     2.2890   -13.2010 ha         1 03X       0.137500
     46 H28         -5.9540    -1.2370   -14.0080 ha         1 03X       0.137500
     47 H11          2.7440    -0.8940     3.5980 h1         1 03X       0.044700
     48 H11A         2.7130     0.8750     3.6080 h1         1 03X       0.044700
     49 H11B         4.0420     0.0080     4.3910 h1         1 03X       0.044700
     50 H3           1.5350    -0.0760     2.1500 ha         1 03X       0.161000
     51 H12          7.2060    -0.0020    -1.1610 h1         1 03X       0.042700
     52 H12A         5.8400    -0.8820    -1.8610 h1         1 03X       0.042700
     53 H12B         5.8460     0.8870    -1.8580 h1         1 03X       0.042700
     54 H14         -0.3760     2.4420    -6.6430 ha         1 03X       0.181000
     55 H16         -0.1620    -1.7980    -7.1990 ha         1 03X       0.146000
     56 HN2         -1.7910    -0.2750    -8.4380 hn         1 03X       0.356500
     57 H23         -4.3980     3.8300   -13.3940 h1         1 03X       0.058033
     58 H23A        -3.1290     4.9290   -12.8370 h1         1 03X       0.058033
     59 H23B        -4.7100     4.9310   -12.0450 h1         1 03X       0.058033
     60 H25         -6.3480     3.2040   -11.8910 ha         1 03X       0.145000
     61 H27         -8.0270     0.0700   -14.2570 ha         1 03X       0.135000
     62 H29         -4.0720    -0.3330   -12.6970 ha         1 03X       0.145000
     63 O3           4.1170     0.0020     2.3500 os         1 03X      -0.309900
     64 O5          -3.5350     0.2060   -10.1270 o          1 03X      -0.655500
@<TRIPOS>BOND
     1     6     1 ar
     2     5     1 ar
     3    33     2 1
     4     2    12 1
     5     2    34 1
     6     3     4 ar
     7     3    21 ar
     8     3    38 1
     9    24     4 ar
    10     4     5 ar
    11     5    20 ar
    12     7     6 ar
    13     6    39 1
    14    24     7 ar
    15     7    40 1
    16     9     8 ar
    17    11     8 ar
    18     8    25 1
    19    26     9 ar
    20     9    27 1
    21    29    10 1
    22    10    26 ar
    23    10    28 ar
    24    28    11 ar
    25    11    41 1
    26    14    12 1
    27    12    32 2
    28    34    13 1
    29    32    13 1
    30    13    64 2
    31    14    42 1
    32    14    43 1
    33    14    44 1
    34    37    15 ar
    35    34    15 1
    36    15    35 ar
    37    36    16 ar
    38    35    16 ar
    39    16    45 1
    40    37    17 ar
    41    17    36 ar
    42    17    46 1
    43    63    18 1
    44    18    47 1
    45    18    48 1
    46    18    49 1
    47    19    63 1
    48    21    19 ar
    49    19    20 ar
    50    20    50 1
    51    22    21 1
    52    23    22 1
    53    23    51 1
    54    23    52 1
    55    23    53 1
    56    25    24 1
    57    26    54 1
    58    28    55 1
    59    30    29 1
    60    29    56 1
    61    32    30 1
    62    31    30 2
    63    33    57 1
    64    33    58 1
    65    33    59 1
    66    35    60 1
    67    36    61 1
    68    37    62 1
@<TRIPOS>SUBSTRUCTURE
     1 03X         1 TEMP              0 ****  ****    0 ROOT
