@<TRIPOS>MOLECULE
03X
   64    68     1     0     0
SMALL
bcc


@<TRIPOS>ATOM
      1 N1           0.1640     0.8880     0.3200 nb         1 03X      -0.680000
      2 N3          -3.3720    -4.4370   -11.2330 na         1 03X      -0.407400
      3 C4           3.4960    -0.1510    -1.0440 ca         1 03X      -0.160000
      4 C5           2.0950     0.0360    -0.9490 ca         1 03X      -0.151300
      5 C6           1.5250     0.6820     0.1900 ca         1 03X       0.424600
      6 C7          -0.6200     0.4650    -0.6560 ca         1 03X       0.437200
      7 C8          -0.1670    -0.1930    -1.8370 ca         1 03X      -0.329300
      8 C10          0.9430    -1.5040    -4.0460 ca         1 03X       0.005100
      9 C13          0.9330    -0.8610    -5.3010 ca         1 03X       0.161900
     10 C15         -0.5340    -2.5980    -6.1810 ca         1 03X       0.109600
     11 C17          0.2160    -2.6850    -3.8600 ca         1 03X      -0.087000
     12 C20         -2.6370    -3.3360   -10.6930 cc         1 03X       0.213800
     13 C21         -2.9790    -4.8530    -8.9860 c          1 03X       0.693700
     14 C22         -2.2670    -2.1810   -11.5340 c3         1 03X      -0.088900
     15 C24         -3.8600    -6.6870   -10.4140 ca         1 03X       0.020600
     16 C26         -4.6680    -8.8380    -9.6310 ca         1 03X      -0.119500
     17 C28         -3.6850    -8.6550   -11.8230 ca         1 03X      -0.119500
     18 C11          4.1780     1.9860     3.2130 c3         1 03X       0.107700
     19 C2           3.7620     0.9390     1.1200 ca         1 03X       0.134100
     20 C3           2.4040     1.1290     1.2280 ca         1 03X      -0.250300
     21 C1           4.3220     0.2890    -0.0360 ca         1 03X       0.108100
     22 O2           5.6950     0.1630    -0.0150 os         1 03X      -0.302900
     23 C12          6.2780    -0.4450    -1.1640 c3         1 03X       0.108700
     24 C9           1.1910    -0.4020    -1.9710 ca         1 03X       0.170100
     25 O1           1.7960    -1.0240    -3.0540 os         1 03X      -0.234200
     26 C14          0.1990    -1.4110    -6.3660 ca         1 03X      -0.200000
     27 F1           1.6340     0.2780    -5.4950 f          1 03X      -0.121900
     28 C16         -0.5130    -3.2270    -4.9050 ca         1 03X      -0.192000
     29 N2          -1.2910    -3.2040    -7.1910 ns         1 03X      -0.463100
     30 C18         -1.4710    -2.7540    -8.4940 c          1 03X       0.726300
     31 O4          -0.9460    -1.7020    -8.9150 o          1 03X      -0.613100
     32 C19         -2.3210    -3.5790    -9.3630 cd         1 03X      -0.353400
     33 C23         -4.4150    -4.1310   -12.2040 c3         1 03X       0.169100
     34 N4          -3.7370    -5.2790   -10.1600 n          1 03X      -0.200400
     35 C25         -4.4630    -7.4800    -9.4110 ca         1 03X      -0.130000
     36 C27         -4.2870    -9.4300   -10.8350 ca         1 03X      -0.133000
     37 C29         -3.4630    -7.2940   -11.6210 ca         1 03X      -0.130000
     38 H4           3.8940    -0.6490    -1.9420 ha         1 03X       0.160000
     39 H7          -1.7030     0.6470    -0.5240 h4         1 03X       0.021100
     40 H8          -0.8840    -0.5130    -2.6020 ha         1 03X       0.156000
     41 H17          0.2330    -3.1780    -2.8760 ha         1 03X       0.155000
     42 H22         -3.1830    -1.5960   -11.8050 hc         1 03X       0.085367
     43 H22A        -1.7690    -2.5220   -12.4780 hc         1 03X       0.085367
     44 H22B        -1.5620    -1.5090   -10.9780 hc         1 03X       0.085367
     45 H26         -5.1360    -9.4470    -8.8420 ha         1 03X       0.137500
     46 H28         -3.3730    -9.1170   -12.7710 ha         1 03X       0.137500
     47 H11          5.0960     2.2070     3.8130 h1         1 03X       0.047033
     48 H11A         3.4890     1.3110     3.7780 h1         1 03X       0.047033
     49 H11B         3.6540     2.9310     2.9290 h1         1 03X       0.047033
     50 H3           1.9660     1.6270     2.1070 ha         1 03X       0.159000
     51 H12          7.3740    -0.4240    -0.9380 h1         1 03X       0.046367
     52 H12A         6.0520     0.1490    -2.0830 h1         1 03X       0.046367
     53 H12B         5.9180    -1.4960    -1.2790 h1         1 03X       0.046367
     54 H14          0.2180    -0.8870    -7.3370 ha         1 03X       0.193000
     55 H16         -1.0760    -4.1580    -4.7350 ha         1 03X       0.146000
     56 HN2         -1.7480    -4.0560    -6.9280 hn         1 03X       0.349500
     57 H23         -5.2510    -3.5180   -11.7730 h1         1 03X       0.063033
     58 H23A        -4.8350    -5.0940   -12.5990 h1         1 03X       0.063033
     59 H23B        -3.9260    -3.5650   -13.0400 h1         1 03X       0.063033
     60 H25         -4.7520    -7.0300    -8.4470 ha         1 03X       0.152500
     61 H27         -4.4570   -10.5040   -11.0010 ha         1 03X       0.137000
     62 H29         -2.9690    -6.7150   -12.4170 ha         1 03X       0.152500
     63 O3           4.6920     1.3290     2.0590 os         1 03X      -0.301900
     64 O5          -2.9950    -5.4540    -7.9060 o          1 03X      -0.602500
@<TRIPOS>BOND
     1     1     5 ar  
     2     1     6 ar  
     3     2    12 1   
     4     2    33 1   
     5     2    34 1   
     6     3     4 ar  
     7     3    21 ar  
     8     3    38 1   
     9     4     5 ar  
    10     4    24 ar  
    11     5    20 ar  
    12     6     7 ar  
    13     6    39 1   
    14     7    24 ar  
    15     7    40 1   
    16     8     9 ar  
    17     8    11 ar  
    18     8    25 1   
    19     9    26 ar  
    20     9    27 1   
    21    10    26 ar  
    22    10    28 ar  
    23    10    29 1   
    24    11    28 ar  
    25    11    41 1   
    26    12    14 1   
    27    12    32 2   
    28    13    32 1   
    29    13    34 1   
    30    13    64 2   
    31    14    42 1   
    32    14    43 1   
    33    14    44 1   
    34    15    34 1   
    35    15    35 ar  
    36    15    37 ar  
    37    16    35 ar  
    38    16    36 ar  
    39    16    45 1   
    40    17    36 ar  
    41    17    37 ar  
    42    17    46 1   
    43    18    47 1   
    44    18    48 1   
    45    18    49 1   
    46    18    63 1   
    47    19    20 ar  
    48    19    21 ar  
    49    19    63 1   
    50    20    50 1   
    51    21    22 1   
    52    22    23 1   
    53    23    51 1   
    54    23    52 1   
    55    23    53 1   
    56    24    25 1   
    57    26    54 1   
    58    28    55 1   
    59    29    30 1   
    60    29    56 1   
    61    30    31 2   
    62    30    32 1   
    63    33    57 1   
    64    33    58 1   
    65    33    59 1   
    66    35    60 1   
    67    36    61 1   
    68    37    62 1   
@<TRIPOS>SUBSTRUCTURE
     1 03X         1 TEMP              0 ****  ****    0 ROOT
