@<TRIPOS>MOLECULE
molecule
   40    42     1     0     0
SMALL
bcc


@<TRIPOS>ATOM
      1 C1           0.0000     0.0000     0.0000 ca         1 03Z      -0.098000
      2 N1           1.2520    -1.0320     7.0260 nc         1 03Z      -0.800000
      3 O1           1.1910    -1.5390    13.5500 o          1 03Z      -0.522800
      4 S1          -0.0350    -1.3640     4.9210 ss         1 03Z      -0.115300
      5 C2           1.3840     0.0000     0.0000 ca         1 03Z      -0.131000
      6 N2           3.2340     0.1320     6.4360 nv         1 03Z      -1.010500
      7 O2           0.0540    -3.7640    13.6430 o          1 03Z      -0.522800
      8 S2           0.0860    -2.3900    13.2790 sy         1 03Z       1.222200
      9 C3           2.0760     0.0000     1.1930 ca         1 03Z      -0.090000
     10 N3          -0.7810    -2.1900     7.4200 nu         1 03Z      -0.737300
     11 O3           3.2470     0.4540     3.7390 o          1 03Z      -0.525100
     12 C4          -0.0170     0.0070     2.3950 ca         1 03Z      -0.090000
     13 N4          -1.2320    -1.6860    13.9940 nz         1 03Z      -0.805500
     14 C5          -0.6970     0.0060     1.1950 ca         1 03Z      -0.131000
     15 C10          1.3780     0.0010     2.4020 ca         1 03Z      -0.169600
     16 C11          2.1150     0.0010     3.6850 c          1 03Z       0.628300
     17 C12          1.5110    -0.5210     4.8440 cd         1 03Z      -0.299000
     18 C13          2.0230    -0.4650     6.1280 cc         1 03Z       0.744200
     19 C14          0.1370    -1.5590     6.6090 cd         1 03Z       0.675300
     20 C15         -0.5760    -2.2370     8.8020 ca         1 03Z       0.264600
     21 C16          0.0720    -1.1900     9.4460 ca         1 03Z      -0.162500
     22 C17          0.2720    -1.2400    10.8120 ca         1 03Z      -0.007500
     23 C18         -0.1720    -2.3310    11.5370 ca         1 03Z      -0.374500
     24 C19         -0.8180    -3.3740    10.9000 ca         1 03Z      -0.007500
     25 C20         -1.0260    -3.3270     9.5350 ca         1 03Z      -0.162500
     26 H1          -0.5390    -0.0010    -0.9390 ha         1 03Z       0.139000
     27 H2           1.9240    -0.0030    -0.9390 ha         1 03Z       0.139000
     28 HN2          3.3930     1.0920     6.1990 hn         1 03Z       0.455300
     29 HN2A         3.9290    -0.3790     6.9420 hn         1 03Z       0.455300
     30 H3           3.1600    -0.0020     1.1920 ha         1 03Z       0.141000
     31 HN3         -1.6100    -2.5870     7.0230 hn         1 03Z       0.478800
     32 H4          -0.5650     0.0100     3.3300 ha         1 03Z       0.141000
     33 HN4         -1.1230    -1.7080    14.9890 hn         1 03Z       0.489800
     34 HN4A        -2.0580    -2.1890    13.7380 hn         1 03Z       0.489800
     35 H5          -1.7800     0.0080     1.1880 ha         1 03Z       0.139000
     36 H16          0.4200    -0.3360     8.8770 ha         1 03Z       0.179000
     37 H17          0.7780    -0.4240    11.3150 ha         1 03Z       0.156000
     38 H19         -1.1690    -4.2240    11.4720 ha         1 03Z       0.156000
     39 H20         -1.5320    -4.1450     9.0360 ha         1 03Z       0.179000
     40 H43         -1.3200    -0.7420    13.6750 hn         1 03Z       0.489800
@<TRIPOS>BOND
     1     5     1 ar
     2    14     1 ar
     3     1    26 1
     4    18     2 1
     5     2    19 2
     6     3     8 2
     7    17     4 1
     8    19     4 1
     9     9     5 ar
    10     5    27 1
    11     6    18 1
    12     6    28 1
    13     6    29 1
    14     8     7 2
    15    23     8 1
    16     8    13 1
    17    15     9 ar
    18     9    30 1
    19    19    10 1
    20    10    20 1
    21    10    31 1
    22    11    16 2
    23    15    12 ar
    24    12    14 ar
    25    12    32 1
    26    13    33 1
    27    13    34 1
    28    14    35 1
    29    16    15 1
    30    16    17 1
    31    18    17 2
    32    20    25 ar
    33    20    21 ar
    34    21    22 ar
    35    21    36 1
    36    22    23 ar
    37    22    37 1
    38    24    23 ar
    39    25    24 ar
    40    24    38 1
    41    25    39 1
    42    40    13 1
@<TRIPOS>SUBSTRUCTURE
     1 03Z         1 TEMP              0 ****  ****    0 ROOT
