@<TRIPOS>MOLECULE
03Z
   40    42     1     0     0
SMALL
bcc


@<TRIPOS>ATOM
      1 C1           2.5320    -0.0580    -0.6610 ca         1 03Z      -0.100000
      2 N1           0.4040    -2.0370     6.0350 nc         1 03Z      -0.714000
      3 O1          -4.8990    -5.3710     9.3680 o          1 03Z      -0.580800
      4 S1           0.7310    -2.1500     3.4550 ss         1 03Z       0.048700
      5 C2           3.4780     0.5510     0.1640 ca         1 03Z      -0.129000
      6 N2           1.0790     0.2470     6.4820 nv         1 03Z      -0.924500
      7 O2          -4.1840    -7.6040     8.8360 o          1 03Z      -0.580800
      8 S2          -4.3140    -6.2720     8.5030 sy         1 03Z       1.518200
      9 C3           3.2240     0.7040     1.5260 ca         1 03Z      -0.097500
     10 N3          -0.1900    -4.1690     5.0160 nu         1 03Z      -0.679300
     11 O3           2.1410     1.4260     4.1240 o          1 03Z      -0.548100
     12 C4           1.0690    -0.3660     1.2390 ca         1 03Z      -0.097500
     13 N4          -5.7990    -6.4410     7.2220 nz         1 03Z      -0.779500
     14 C5           1.3260    -0.5090    -0.1230 ca         1 03Z      -0.129000
     15 C10          2.0230     0.2320     2.0720 ca         1 03Z      -0.169600
     16 C11          1.7880     0.3970     3.5250 c          1 03Z       0.638300
     17 C12          1.1690    -0.7240     4.2100 cd         1 03Z      -0.405000
     18 C13          0.9100    -0.7890     5.6120 cc         1 03Z       0.696200
     19 C14          0.2760    -2.8410     4.9570 cd         1 03Z       0.563300
     20 C15         -1.1640    -4.6260     5.8590 ca         1 03Z       0.321600
     21 C16         -2.0860    -3.7690     6.5390 ca         1 03Z      -0.215000
     22 C17         -3.0720    -4.2960     7.3320 ca         1 03Z       0.051500
     23 C18         -3.2440    -5.6970     7.5140 ca         1 03Z      -0.659500
     24 C19         -2.3320    -6.5390     6.8230 ca         1 03Z       0.051500
     25 C20         -1.3360    -6.0430     6.0240 ca         1 03Z      -0.215000
     26 H1           2.7320    -0.1740    -1.7370 ha         1 03Z       0.145000
     27 H2           4.4250     0.9190    -0.2610 ha         1 03Z       0.144000
     28 HN2          1.5470     1.0600     6.1440 hn         1 03Z       0.460800
     29 HN2A         1.0480     0.0810     7.4590 hn         1 03Z       0.460800
     30 H3           3.9570     1.2020     2.1810 ha         1 03Z       0.144000
     31 HN3          0.4340    -4.8450     4.6170 hn         1 03Z       0.468800
     32 H4           0.0930    -0.6850     1.6420 ha         1 03Z       0.144000
     33 HN4         -6.1000    -7.4090     7.1630 hn         1 03Z       0.445467
     34 HN4A        -5.5350    -6.1320     6.2940 hn         1 03Z       0.445467
     35 H5           0.5710    -0.9700    -0.7780 ha         1 03Z       0.144000
     36 H16         -2.0040    -2.6730     6.4410 ha         1 03Z       0.178000
     37 H17         -3.7540    -3.6080     7.8690 ha         1 03Z       0.164500
     38 H19         -2.4200    -7.6350     6.9580 ha         1 03Z       0.164500
     39 H20         -0.6480    -6.7420     5.5190 ha         1 03Z       0.178000
     40 H43         -6.5890    -5.8830     7.5310 hn         1 03Z       0.445467
@<TRIPOS>BOND
     1     1     5 ar  
     2     1    14 ar  
     3     1    26 1   
     4     2    18 1   
     5     2    19 2   
     6     3     8 2   
     7     4    17 1   
     8     4    19 1   
     9     5     9 ar  
    10     5    27 1   
    11     6    18 1   
    12     6    28 1   
    13     6    29 1   
    14     7     8 2   
    15     8    13 1   
    16     8    23 1   
    17     9    15 ar  
    18     9    30 1   
    19    10    19 1   
    20    10    20 1   
    21    10    31 1   
    22    11    16 2   
    23    12    14 ar  
    24    12    15 ar  
    25    12    32 1   
    26    13    33 1   
    27    13    34 1   
    28    13    40 1   
    29    14    35 1   
    30    15    16 1   
    31    16    17 1   
    32    17    18 2   
    33    20    21 ar  
    34    20    25 ar  
    35    21    22 ar  
    36    21    36 1   
    37    22    23 ar  
    38    22    37 1   
    39    23    24 ar  
    40    24    25 ar  
    41    24    38 1   
    42    25    39 1   
@<TRIPOS>SUBSTRUCTURE
     1 03Z         1 TEMP              0 ****  ****    0 ROOT
