@<TRIPOS>MOLECULE
040
   24    24     1     0     0
SMALL
bcc


@<TRIPOS>ATOM
      1 C01          0.0590     0.0960    -0.2800 c3         1 040      -0.053800
      2 C02          1.5220     0.1670    -0.0590 ca         1 040      -0.029300
      3 C03          2.0950    -0.1170     1.1970 ca         1 040      -0.171600
      4 C04          1.2520    -0.5150     2.3510 c          1 040       0.599700
      5 O05          0.0360    -0.2700     2.3900 o          1 040      -0.566100
      6 C06          1.9160    -1.2800     3.4590 c3         1 040      -0.296400
      7 C07          2.6670    -0.4200     4.4570 c          1 040       0.468100
      8 C08          4.0110    -1.0330     4.8940 c          1 040       0.857600
      9 O09          4.9680    -0.8980     4.0820 o          1 040      -0.806800
     10 O10          4.0460    -1.6470     5.9880 o          1 040      -0.806800
     11 O11          2.2180     0.6540     4.8600 o          1 040      -0.562100
     12 C12          3.4850    -0.0220     1.3550 ca         1 040      -0.078000
     13 C13          4.2960     0.3500     0.2840 ca         1 040      -0.151000
     14 C14          3.7310     0.6230    -0.9590 ca         1 040      -0.117000
     15 C15          2.3520     0.5290    -1.1280 ca         1 040      -0.170000
     16 H01         -0.3440    -0.8850     0.0770 hc         1 040       0.045700
     17 H01A        -0.4520     0.9000     0.3090 hc         1 040       0.045700
     18 H01B        -0.1980     0.2190    -1.3600 hc         1 040       0.045700
     19 H06          1.1350    -1.8440     4.0360 hc         1 040       0.083200
     20 H06A         2.6350    -2.0220     3.0190 hc         1 040       0.083200
     21 H12          3.9630    -0.2400     2.3370 ha         1 040       0.211000
     22 H13          5.3840     0.4230     0.4300 ha         1 040       0.137000
     23 H14          4.3690     0.9130    -1.8060 ha         1 040       0.115000
     24 H15          1.9060     0.7450    -2.1090 ha         1 040       0.117000
@<TRIPOS>BOND
     1     1     2 1   
     2     1    16 1   
     3     1    17 1   
     4     1    18 1   
     5     2     3 ar  
     6     2    15 ar  
     7     3     4 1   
     8     3    12 ar  
     9     4     5 2   
    10     4     6 1   
    11     6     7 1   
    12     6    19 1   
    13     6    20 1   
    14     7     8 1   
    15     7    11 2   
    16     8     9 1   
    17     8    10 1   
    18    12    13 ar  
    19    12    21 1   
    20    13    14 ar  
    21    13    22 1   
    22    14    15 ar  
    23    14    23 1   
    24    15    24 1   
@<TRIPOS>SUBSTRUCTURE
     1 040         1 TEMP              0 ****  ****    0 ROOT
