@<TRIPOS>MOLECULE
molecule
   24    24     1     0     0
SMALL
bcc


@<TRIPOS>ATOM
      1 C01          0.0000     0.0000     0.0000 c3         1 040      -0.043800
      2 C02          1.5070     0.0000     0.0000 ca         1 040      -0.029300
      3 C03          2.2080     0.0000     1.2100 ca         1 040      -0.167600
      4 C04          1.4790     0.0000     2.4880 c          1 040       0.556700
      5 O05          0.2710    -0.1090     2.4970 o          1 040      -0.492100
      6 C06          2.2320     0.1360     3.7850 c3         1 040      -0.282400
      7 C07          1.2600     0.1070     4.9360 c          1 040       0.463100
      8 C08          1.7580     0.2250     6.3370 c          1 040       0.808600
      9 O09          2.9460     0.3440     6.5500 o          1 040      -0.814300
     10 O10          0.8890     0.1990     7.3650 o          1 040      -0.814300
     11 O11          0.0770    -0.0110     4.7240 o          1 040      -0.501100
     12 C12          3.6070    -0.0010     1.1990 ca         1 040      -0.086000
     13 C13          4.2830    -0.0010    -0.0030 ca         1 040      -0.157000
     14 C14          3.5820    -0.0010    -1.1960 ca         1 040      -0.115000
     15 C15          2.1970    -0.0060    -1.1930 ca         1 040      -0.153000
     16 H01         -0.3610    -0.9040     0.4750 hc         1 040       0.051033
     17 H01A        -0.3610     0.8630     0.5450 hc         1 040       0.051033
     18 H01B        -0.3610     0.0410    -1.0210 hc         1 040       0.051033
     19 H06          2.7730     1.0740     3.7930 hc         1 040       0.083200
     20 H06A         2.9320    -0.6850     3.8840 hc         1 040       0.083200
     21 H12          4.1580    -0.0010     2.1320 ha         1 040       0.145000
     22 H13          5.3660     0.0010    -0.0130 ha         1 040       0.123000
     23 H14          4.1190    -0.0030    -2.1360 ha         1 040       0.117000
     24 H15          1.6550    -0.0050    -2.1310 ha         1 040       0.123000
@<TRIPOS>BOND
     1     1     2 1
     2     1    16 1
     3     1    17 1
     4     1    18 1
     5     2    15 ar
     6     2     3 ar
     7     4     3 1
     8     3    12 ar
     9     5     4 2
    10     4     6 1
    11     7     6 1
    12     6    19 1
    13     6    20 1
    14    11     7 2
    15     7     8 1
    16     9     8 1
    17     8    10 1
    18    12    13 ar
    19    12    21 1
    20    14    13 ar
    21    13    22 1
    22    15    14 ar
    23    14    23 1
    24    15    24 1
@<TRIPOS>SUBSTRUCTURE
     1 040         1 TEMP              0 ****  ****    0 ROOT
