@<TRIPOS>MOLECULE
042
   53    53     1     0     0
SMALL
bcc


@<TRIPOS>ATOM
      1 C10          1.9240     0.9850     0.5250 c3         1 042       0.142400
      2 C11          1.3480     2.3110     0.1020 c3         1 042      -0.133100
      3 C3          -0.2990    -0.4230     3.8410 cx         1 042      -0.019900
      4 C2          -0.7040    -0.8230     2.4580 cx         1 042       0.071100
      5 O1           0.0640    -1.6980     3.3050 op         1 042      -0.355600
      6 O4          -2.0680     0.4370     5.2690 o          1 042      -0.389100
      7 N1          -1.2010    -1.6730     5.8340 ny         1 042      -0.663800
      8 C5          -2.1750    -1.7290     6.9740 c3         1 042       0.034500
      9 C6          -1.4680    -1.2830     8.2860 c          1 042       0.660100
     10 O5          -0.2240    -1.1920     8.3010 o          1 042      -0.581100
     11 C12         -2.7730    -3.1550     7.1460 c3         1 042       0.136100
     12 O8          -1.7080    -4.0730     6.9510 oh         1 042      -0.621800
     13 C13         -3.8800    -3.4030     6.1390 c3         1 042      -0.148100
     14 N2          -2.2700    -1.0090     9.3570 ns         1 042      -0.534900
     15 C7          -1.7260    -0.7180    10.6670 c3         1 042       0.004700
     16 C8          -1.9400    -1.9130    11.6040 c          1 042       0.604100
     17 O7          -3.1920    -2.3690    11.8930 oh         1 042      -0.576100
     18 C14         -2.1960     0.6170    11.2900 c3         1 042      -0.077700
     19 C16         -3.4950     1.2140    10.7750 c3         1 042      -0.090400
     20 C15         -2.1810     0.5140    12.8010 c3         1 042      -0.114100
     21 C17         -4.7660     0.4660    11.0760 c3         1 042      -0.106100
     22 O6          -1.0320    -2.5770    12.0930 o          1 042      -0.447000
     23 C9           0.0080    -0.2450     1.2740 c          1 042       0.638100
     24 O2          -0.3800    -0.3260     0.1130 o          1 042      -0.468000
     25 O3           1.1510     0.4080     1.6020 os         1 042      -0.440900
     26 C4          -1.2770    -0.4410     4.9700 c          1 042       0.558100
     27 H101         1.9650     0.2620    -0.3310 h1         1 042       0.079700
     28 H102         2.9380     1.0960     0.9980 h1         1 042       0.079700
     29 H111         0.3350     2.1710    -0.3470 hc         1 042       0.059700
     30 H112         2.0180     2.7760    -0.6610 hc         1 042       0.059700
     31 H113         1.2610     3.0040     0.9740 hc         1 042       0.059700
     32 H3           0.5410     0.2950     4.0030 h1         1 042       0.189700
     33 H2          -1.7280    -1.1830     2.2190 h1         1 042       0.143700
     34 HN1         -1.3290    -2.5090     5.2390 hn         1 042       0.497300
     35 H5          -3.0250    -1.0160     6.7450 hx         1 042       0.133700
     36 H12         -3.1800    -3.2400     8.1930 h1         1 042       0.087700
     37 HO8         -1.9730    -4.9200     7.3350 ho         1 042       0.459000
     38 H131        -4.3260    -4.4140     6.3190 hc         1 042       0.066367
     39 H132        -4.6880    -2.6390     6.2430 hc         1 042       0.066367
     40 H133        -3.4880    -3.3850     5.0950 hc         1 042       0.066367
     41 HN2         -3.8500    -1.6930    11.6790 ho         1 042       0.431000
     42 H7          -0.5930    -0.6390    10.5580 h1         1 042       0.132700
     43 H14         -1.3950     1.3660    11.0010 hc         1 042       0.072700
     44 H161        -3.4180     1.3850     9.6680 hc         1 042       0.054200
     45 H162        -3.5800     2.2370    11.2430 hc         1 042       0.054200
     46 H151        -1.1910     0.1360    13.1560 hc         1 042       0.058700
     47 H152        -2.9750    -0.1770    13.1760 hc         1 042       0.058700
     48 H153        -2.3570     1.5220    13.2500 hc         1 042       0.058700
     49 H171        -4.8290     0.1920    12.1590 hc         1 042       0.040700
     50 H172        -5.6470     1.1140    10.8390 hc         1 042       0.040700
     51 H173        -4.8650    -0.4630    10.4620 hc         1 042       0.040700
     52 H121        -0.2390    -1.7310     6.2330 hn         1 042       0.497300
     53 H23         -3.2580    -1.0000     9.2550 hn         1 042       0.329500
@<TRIPOS>BOND
     1     1     2 1   
     2     1    25 1   
     3     1    27 1   
     4     1    28 1   
     5     2    29 1   
     6     2    30 1   
     7     2    31 1   
     8     3     4 1   
     9     3     5 1   
    10     3    26 1   
    11     3    32 1   
    12     4     5 1   
    13     4    23 1   
    14     4    33 1   
    15     6    26 2   
    16     7     8 1   
    17     7    26 1   
    18     7    34 1   
    19     7    52 1   
    20     8     9 1   
    21     8    11 1   
    22     8    35 1   
    23     9    10 2   
    24     9    14 1   
    25    11    12 1   
    26    11    13 1   
    27    11    36 1   
    28    12    37 1   
    29    13    38 1   
    30    13    39 1   
    31    13    40 1   
    32    14    15 1   
    33    14    53 1   
    34    15    16 1   
    35    15    18 1   
    36    15    42 1   
    37    16    17 1   
    38    16    22 2   
    39    17    41 1   
    40    18    19 1   
    41    18    20 1   
    42    18    43 1   
    43    19    21 1   
    44    19    44 1   
    45    19    45 1   
    46    20    46 1   
    47    20    47 1   
    48    20    48 1   
    49    21    49 1   
    50    21    50 1   
    51    21    51 1   
    52    23    24 2   
    53    23    25 1   
@<TRIPOS>SUBSTRUCTURE
     1 042         1 TEMP              0 ****  ****    0 ROOT
