@<TRIPOS>MOLECULE
molecule
   51    51     1     0     0
SMALL
bcc


@<TRIPOS>ATOM
      1 C10          0.0000     0.0000     0.0000 c3         1 042       0.156400
      2 C11          1.5300     0.0000     0.0000 c3         1 042      -0.097100
      3 C3          -2.0320    -1.2400     3.8880 cx         1 042      -0.005900
      4 C2          -2.3060    -0.0010     3.0350 cx         1 042       0.003100
      5 O1          -3.3330    -0.9330     3.3770 op         1 042      -0.325600
      6 O4          -2.5970    -1.4500     6.1690 o          1 042      -0.609100
      7 N1          -0.6770    -0.4090     5.7820 ns         1 042      -0.536900
      8 C5          -0.4420    -0.2140     7.2150 c3         1 042       0.047700
      9 C6           0.4580     0.9770     7.4200 c          1 042       0.666100
     10 O5           0.8620     1.6030     6.4630 o          1 042      -0.619100
     11 C12          0.2250    -1.4620     7.7970 c3         1 042       0.137100
     12 O8           1.5220    -1.6220     7.2190 oh         1 042      -0.573800
     13 C13         -0.6300    -2.6920     7.4790 c3         1 042      -0.137100
     14 N2           0.8120     1.3490     8.6660 ns         1 042      -0.534900
     15 C7           1.6860     2.5060     8.8650 c3         1 042       0.007700
     16 C8           3.1250     2.0770     8.7400 c          1 042       0.887600
     17 O7           4.1100     2.9780     8.8860 o          1 042      -0.836300
     18 C14          1.4490     3.0920    10.2600 c3         1 042      -0.059700
     19 C16          2.2700     4.3720    10.4220 c3         1 042      -0.083400
     20 C15          1.8770     2.0740    11.3190 c3         1 042      -0.094100
     21 C17          1.9370     5.0230    11.7650 c3         1 042      -0.095100
     22 O6           3.3930     0.9220     8.5070 o          1 042      -0.836300
     23 C9          -1.8040    -0.0000     1.6140 c          1 042       0.652100
     24 O2          -2.5880    -0.0010     0.6950 o          1 042      -0.530000
     25 O3          -0.4830     0.0000     1.3690 os         1 042      -0.429900
     26 H101        -0.3610    -0.8850    -0.5110 h1         1 042       0.044200
     27 H102        -0.3610     0.8850    -0.5110 h1         1 042       0.044200
     28 H111         1.8910     0.0520    -1.0200 hc         1 042       0.051033
     29 H112         1.8910    -0.9090     0.4650 hc         1 042       0.051033
     30 H113         1.8910     0.8570     0.5550 hc         1 042       0.051033
     31 H3          -1.5190    -2.0430     3.3720 h1         1 042       0.114700
     32 H2          -2.3380     0.9320     3.5840 h1         1 042       0.135700
     33 HN1         -0.0100    -0.0720     5.1160 hn         1 042       0.351500
     34 H5          -1.3870    -0.0430     7.7160 h1         1 042       0.083700
     35 H12          0.3180    -1.3550     8.8710 h1         1 042       0.039700
     36 HO8          1.9420    -2.3780     7.5950 ho         1 042       0.400000
     37 H131        -1.6620    -2.4910     7.7400 hc         1 042       0.043700
     38 H132        -0.2700    -3.5390     8.0510 hc         1 042       0.043700
     39 H133        -0.5610    -2.9160     6.4210 hc         1 042       0.043700
     40 HN2          0.4540     0.8500     9.4570 hn         1 042       0.297500
     41 H7           1.4670     3.2570     8.1160 h1         1 042       0.072700
     42 H14          0.3970     3.3190    10.3810 hc         1 042       0.012700
     43 H161         3.3250     4.1320    10.3890 hc         1 042       0.076700
     44 H162         2.0300     5.0590     9.6190 hc         1 042       0.076700
     45 H151         1.0890     1.3430    11.4570 hc         1 042       0.032367
     46 H152         2.0630     2.5850    12.2560 hc         1 042       0.032367
     47 H153         2.7810     1.5730    10.9950 hc         1 042       0.032367
     48 H171         2.1120     6.0910    11.7020 hc         1 042       0.016700
     49 H172         2.5680     4.6000    12.5380 hc         1 042       0.016700
     50 H173         0.8970     4.8410    12.0070 hc         1 042       0.016700
     51 C4          -1.7900    -1.0410     5.3610 c          1 042       0.667100
@<TRIPOS>BOND
     1     1     2 1   
     2     1    25 1   
     3     1    26 1   
     4     1    27 1   
     5     2    28 1   
     6     2    29 1   
     7     2    30 1   
     8     3     4 1   
     9     3     5 1   
    10     3    51 1   
    11     3    31 1   
    12     4     5 1   
    13     4    23 1   
    14     4    32 1   
    15    51     6 2   
    16    51     7 1   
    17     7     8 1   
    18     7    33 1   
    19     8     9 1   
    20     8    11 1   
    21     8    34 1   
    22     9    10 2   
    23     9    14 1   
    24    11    12 1   
    25    11    13 1   
    26    11    35 1   
    27    12    36 1   
    28    13    37 1   
    29    13    38 1   
    30    13    39 1   
    31    14    15 1   
    32    14    40 1   
    33    15    16 1   
    34    15    18 1   
    35    15    41 1   
    36    16    17 1   
    37    16    22 1   
    38    18    19 1   
    39    18    20 1   
    40    18    42 1   
    41    19    21 1   
    42    19    43 1   
    43    19    44 1   
    44    20    45 1   
    45    20    46 1   
    46    20    47 1   
    47    21    48 1   
    48    21    49 1   
    49    21    50 1   
    50    23    24 2   
    51    23    25 1   
@<TRIPOS>SUBSTRUCTURE
     1 042         1 TEMP              0 ****  ****    0 ROOT
