@<TRIPOS>MOLECULE
043
   21    21     1     0     0
SMALL
bcc


@<TRIPOS>ATOM
      1 O01          1.3430     0.1020     1.0170 o          1 043      -0.804800
      2 C02          2.2720     0.6690     0.3950 c          1 043       0.858600
      3 O03          3.1740     1.3950     0.8990 o          1 043      -0.804800
      4 C04          2.3090     0.5230    -1.1380 c          1 043       0.466100
      5 O05          2.6930    -0.4800    -1.7440 o          1 043      -0.560100
      6 C06          1.8140     1.7570    -1.8650 c3         1 043      -0.297400
      7 C07          2.5990     2.1300    -3.0840 c          1 043       0.600700
      8 O08          2.1220     2.0070    -4.2230 o          1 043      -0.564100
      9 C09          3.9500     2.7120    -2.8900 ca         1 043      -0.172600
     10 C10          4.5840     2.7140    -1.6430 ca         1 043      -0.065000
     11 C11          5.8540     3.2800    -1.5130 ca         1 043      -0.148000
     12 C12          6.4960     3.8460    -2.6110 ca         1 043      -0.094000
     13 C13          5.8640     3.8430    -3.8590 ca         1 043      -0.053900
     14 Br14         6.7260     4.6040    -5.3440 br         1 043      -0.127100
     15 C15          4.5990     3.2750    -4.0010 ca         1 043      -0.060000
     16 H06          0.7460     1.5630    -2.1560 hc         1 043       0.086200
     17 H06A         1.8310     2.6190    -1.1440 hc         1 043       0.086200
     18 H10          4.0950     2.2630    -0.7490 ha         1 043       0.220000
     19 H11          6.3480     3.2740    -0.5300 ha         1 043       0.143000
     20 H12          7.4960     4.2900    -2.4930 ha         1 043       0.132000
     21 H15          4.0900     3.2520    -4.9790 ha         1 043       0.159000
@<TRIPOS>BOND
     1     1     2 1   
     2     2     3 1   
     3     2     4 1   
     4     4     5 2   
     5     4     6 1   
     6     6     7 1   
     7     6    16 1   
     8     6    17 1   
     9     7     8 2   
    10     7     9 1   
    11     9    10 ar  
    12     9    15 ar  
    13    10    11 ar  
    14    10    18 1   
    15    11    12 ar  
    16    11    19 1   
    17    12    13 ar  
    18    12    20 1   
    19    13    14 1   
    20    13    15 ar  
    21    15    21 1   
@<TRIPOS>SUBSTRUCTURE
     1 043         1 TEMP              0 ****  ****    0 ROOT
