@<TRIPOS>MOLECULE
043
   21    21     1     0     0
SMALL
bcc


@<TRIPOS>ATOM
      1 O01          0.0000     0.0000     0.0000 o          1 043      -0.865300
      2 C02          1.2130     0.0000     0.0000 c          1 043       0.899600
      3 O03          1.8860     0.0000     1.1660 o          1 043      -0.865300
      4 C04          1.9580    -0.0080    -1.2910 c          1 043       0.497100
      5 O05          3.1660    -0.0080    -1.2910 o          1 043      -0.527100
      6 C06          1.2040    -0.0140    -2.5960 c3         1 043      -0.224400
      7 C07          2.1840    -0.0200    -3.7420 c          1 043       0.596700
      8 O08          3.3760    -0.0190    -3.5210 o          1 043      -0.509100
      9 C09          1.6930    -0.0270    -5.1290 ca         1 043      -0.161600
     10 C10          2.5990    -0.0340    -6.1950 ca         1 043      -0.043000
     11 C11          2.1330    -0.0420    -7.4920 ca         1 043      -0.122000
     12 C12          0.7710    -0.0430    -7.7420 ca         1 043      -0.078000
     13 C13         -0.1330    -0.0360    -6.6930 ca         1 043       0.024100
     14 Br14        -1.9900    -0.0380    -7.0470 br         1 043      -0.149100
     15 C15          0.3200    -0.0350    -5.3880 ca         1 043      -0.049000
     16 H06          0.5810    -0.8990    -2.6490 hc         1 043       0.054700
     17 H06A         0.5810     0.8700    -2.6580 hc         1 043       0.054700
     18 H10          3.6650    -0.0330    -6.0020 ha         1 043       0.125000
     19 H11          2.8340    -0.0470    -8.3180 ha         1 043       0.102000
     20 H12          0.4110    -0.0490    -8.7640 ha         1 043       0.107000
     21 H15         -0.3880    -0.0300    -4.5680 ha         1 043       0.135000
@<TRIPOS>BOND
     1     1     2 1   
     2     2     3 1   
     3     2     4 1   
     4     4     5 2   
     5     4     6 1   
     6     6     7 1   
     7     6    16 1   
     8     6    17 1   
     9     7     8 2   
    10     7     9 1   
    11     9    10 ar  
    12     9    15 ar  
    13    10    11 ar  
    14    10    18 1   
    15    11    12 ar  
    16    11    19 1   
    17    12    13 ar  
    18    12    20 1   
    19    13    14 1   
    20    13    15 ar  
    21    15    21 1   
@<TRIPOS>SUBSTRUCTURE
     1 043         1 TEMP              0 ****  ****    0 ROOT
