@<TRIPOS>MOLECULE
molecule
   21    21     1     0     0
SMALL
bcc


@<TRIPOS>ATOM
      1 O01          0.0000     0.0000     0.0000 o          1 043      -0.812300
      2 C02          1.2130     0.0000     0.0000 c          1 043       0.808600
      3 O03          1.8860     0.0000     1.1660 o          1 043      -0.812300
      4 C04          1.9580    -0.0080    -1.2910 c          1 043       0.464100
      5 O05          3.1660    -0.0080    -1.2910 o          1 043      -0.501100
      6 C06          1.2040    -0.0140    -2.5960 c3         1 043      -0.282400
      7 C07          2.1840    -0.0200    -3.7420 c          1 043       0.554700
      8 O08          3.3760    -0.0190    -3.5210 o          1 043      -0.481100
      9 C09          1.6930    -0.0270    -5.1290 ca         1 043      -0.159600
     10 C10          2.5990    -0.0340    -6.1950 ca         1 043      -0.069000
     11 C11          2.1330    -0.0420    -7.4920 ca         1 043      -0.150000
     12 C12          0.7710    -0.0430    -7.7420 ca         1 043      -0.096000
     13 C13         -0.1330    -0.0360    -6.6930 ca         1 043      -0.033900
     14 Br14        -1.9900    -0.0380    -7.0470 br         1 043      -0.111100
     15 C15          0.3200    -0.0350    -5.3880 ca         1 043      -0.066000
     16 H06          0.5810     0.8700    -2.6580 hc         1 043       0.084700
     17 H06A         0.5810    -0.8990    -2.6490 hc         1 043       0.084700
     18 H10          3.6650    -0.0330    -6.0020 ha         1 043       0.155000
     19 H11          2.8340    -0.0470    -8.3180 ha         1 043       0.130000
     20 H12          0.4110    -0.0490    -8.7640 ha         1 043       0.133000
     21 H15         -0.3880    -0.0300    -4.5680 ha         1 043       0.161000
@<TRIPOS>BOND
     1     1     2 1   
     2     4     2 1   
     3     2     3 1   
     4     5     4 2   
     5     4     6 1   
     6     7     6 1   
     7     6    16 1   
     8     6    17 1   
     9     8     7 2   
    10     7     9 1   
    11    15     9 ar  
    12     9    10 ar  
    13    10    11 ar  
    14    10    18 1   
    15    12    11 ar  
    16    11    19 1   
    17    13    12 ar  
    18    12    20 1   
    19    14    13 1   
    20    15    13 ar  
    21    15    21 1   
@<TRIPOS>SUBSTRUCTURE
     1 043         1 TEMP              0 ****  ****    0 ROOT
