@<TRIPOS>MOLECULE
044
   67    71     1     0     0
SMALL
bcc


@<TRIPOS>ATOM
      1 CAA         -0.2000    -0.0680     0.1270 ca         1 044       0.144100
      2 CAB          3.5300    -0.0590     3.5110 ca         1 044      -0.340300
      3 CAC          4.0620     0.1500     2.2050 ca         1 044       0.449200
      4 NAD          3.3450     0.1990     1.0960 nb         1 044      -0.689000
      5 CAE          1.9750     0.0400     1.2050 ca         1 044       0.449600
      6 CAF          1.3290    -0.1740     2.4630 ca         1 044      -0.189300
      7 CAG          2.1640    -0.2190     3.6270 ca         1 044       0.181100
      8 CAH          1.1680     0.0880     0.0260 ca         1 044      -0.270300
      9 CAI         -0.8400    -0.2790     1.3850 ca         1 044      -0.155000
     10 CAJ         -0.0790    -0.3280     2.5230 ca         1 044      -0.062000
     11 OAK          1.4870    -0.4290     4.8180 os         1 044      -0.233200
     12 CAL          2.2690    -0.5060     5.9690 ca         1 044       0.006100
     13 CAM          2.9890    -1.6630     6.2750 ca         1 044      -0.089000
     14 CAN          2.2080     0.5540     6.9010 ca         1 044       0.163900
     15 CAO          2.8660     0.4320     8.1320 ca         1 044      -0.224000
     16 CAP          3.5970    -0.7400     8.4430 ca         1 044       0.111600
     17 CAQ          3.6470    -1.7850     7.4920 ca         1 044      -0.170000
     18 NAR          4.2290    -0.7960     9.6910 ns         1 044      -0.463100
     19 CAS          5.4150    -0.4240    12.3840 c          1 044       0.692700
     20 CAT          5.5930    -1.6230    11.5270 cc         1 044      -0.352400
     21 CAU          5.0480    -1.8080    10.1750 c          1 044       0.726300
     22 OAV          5.3100    -2.8320     9.5090 o          1 044      -0.617100
     23 NAW          6.8380    -1.9080    13.4520 na         1 044      -0.400400
     24 CAX          6.3960    -2.5090    12.2320 cd         1 044       0.205800
     25 NAY          6.1080    -0.7160    13.6330 n          1 044      -0.190400
     26 CBA          6.7340     0.3700    14.3350 ca         1 044       0.029600
     27 CBB          8.1020     0.3910    14.6650 ca         1 044      -0.128000
     28 CBC          5.9090     1.4400    14.7480 ca         1 044      -0.128000
     29 CBD          6.4510     2.4900    15.4810 ca         1 044      -0.119500
     30 CBE          8.6230     1.4490    15.4070 ca         1 044      -0.119500
     31 CBF          7.8040     2.4980    15.8190 ca         1 044      -0.134000
     32 FBG          1.5130     1.6790     6.6220 f          1 044      -0.122900
     33 CBH          6.8490    -3.8570    11.8340 c3         1 044      -0.087900
     34 CBI          7.0040    -2.7770    14.6170 c3         1 044       0.185800
     35 CBJ          5.7390    -3.4730    15.1540 c3         1 044       0.117100
     36 CBK          6.0950    -4.8190    15.7580 c3         1 044      -0.134100
     37 OBL          5.2090    -2.5990    16.1400 oh         1 044      -0.586800
     38 OBM         -1.0730    -0.0400    -0.9410 os         1 044      -0.326900
     39 CBN         -0.4930     0.1780    -2.2230 c3         1 044       0.110700
     40 HAB          4.1970    -0.0860     4.3820 ha         1 044       0.157000
     41 HAC          5.1540     0.2830     2.0850 h4         1 044       0.022100
     42 HAH          1.6600     0.2520    -0.9440 ha         1 044       0.156000
     43 HAI         -1.9320    -0.3950     1.4090 ha         1 044       0.153000
     44 HAJ         -0.5470    -0.4870     3.5080 ha         1 044       0.154000
     45 HAM          3.0290    -2.4820     5.5400 ha         1 044       0.156000
     46 HAO          2.7990     1.2700     8.8450 ha         1 044       0.159000
     47 HAQ          4.2050    -2.7130     7.7020 ha         1 044       0.182000
     48 HNAR         4.0820     0.0020    10.2800 hn         1 044       0.350500
     49 HBB          8.7810    -0.4140    14.3440 ha         1 044       0.150500
     50 HBC          4.8400     1.4540    14.4750 ha         1 044       0.150500
     51 HBD          5.8000     3.3190    15.7960 ha         1 044       0.136000
     52 HBE          9.6930     1.4530    15.6630 ha         1 044       0.136000
     53 HBF          8.2230     3.3300    16.4030 ha         1 044       0.135000
     54 HBH          7.9680    -3.8870    11.7710 hc         1 044       0.083367
     55 HBHA         6.5140    -4.6180    12.5850 hc         1 044       0.083367
     56 HBHB         6.4270    -4.1250    10.8310 hc         1 044       0.083367
     57 HBI          7.7510    -3.5580    14.3020 h1         1 044       0.088200
     58 HBIA         7.4470    -2.1540    15.4480 h1         1 044       0.088200
     59 HBJ          4.9810    -3.6190    14.3320 h1         1 044       0.042700
     60 HBK          6.4900    -5.5040    14.9700 hc         1 044       0.048367
     61 HBKA         6.8670    -4.6970    16.5550 hc         1 044       0.048367
     62 HBKB         5.1890    -5.2850    16.2160 hc         1 044       0.048367
     63 HOBL         4.3920    -2.9990    16.4610 ho         1 044       0.406000
     64 HBN          0.0230     1.1680    -2.2590 h1         1 044       0.047033
     65 HBNA        -1.3750     0.1660    -2.9120 h1         1 044       0.047033
     66 HBNB         0.2190    -0.6440    -2.4780 h1         1 044       0.047033
     67 OAZ          4.7670     0.6090    12.1820 o          1 044      -0.603500
@<TRIPOS>BOND
     1     1     8 ar  
     2     1     9 ar  
     3     1    38 1   
     4     2     3 ar  
     5     2     7 ar  
     6     2    40 1   
     7     3     4 ar  
     8     3    41 1   
     9     4     5 ar  
    10     5     6 ar  
    11     5     8 ar  
    12     6     7 ar  
    13     6    10 ar  
    14     7    11 1   
    15     8    42 1   
    16     9    10 ar  
    17     9    43 1   
    18    10    44 1   
    19    11    12 1   
    20    12    13 ar  
    21    12    14 ar  
    22    13    17 ar  
    23    13    45 1   
    24    14    15 ar  
    25    14    32 1   
    26    15    16 ar  
    27    15    46 1   
    28    16    17 ar  
    29    16    18 1   
    30    17    47 1   
    31    18    21 1   
    32    18    48 1   
    33    19    20 1   
    34    19    25 1   
    35    19    67 2   
    36    20    21 1   
    37    20    24 2   
    38    21    22 2   
    39    23    24 1   
    40    23    25 1   
    41    23    34 1   
    42    24    33 1   
    43    25    26 1   
    44    26    27 ar  
    45    26    28 ar  
    46    27    30 ar  
    47    27    49 1   
    48    28    29 ar  
    49    28    50 1   
    50    29    31 ar  
    51    29    51 1   
    52    30    31 ar  
    53    30    52 1   
    54    31    53 1   
    55    33    54 1   
    56    33    55 1   
    57    33    56 1   
    58    34    35 1   
    59    34    57 1   
    60    34    58 1   
    61    35    36 1   
    62    35    37 1   
    63    35    59 1   
    64    36    60 1   
    65    36    61 1   
    66    36    62 1   
    67    37    63 1   
    68    38    39 1   
    69    39    64 1   
    70    39    65 1   
    71    39    66 1   
@<TRIPOS>SUBSTRUCTURE
     1 044         1 TEMP              0 ****  ****    0 ROOT
