@<TRIPOS>MOLECULE
044
   67    71     1     0     0
SMALL
bcc


@<TRIPOS>ATOM
      1 CAA          0.0000     0.0000     0.0000 ca         1 044       0.164100
      2 CAB          3.4220     0.0020     3.6120 ca         1 044      -0.355300
      3 CAC          4.0710     0.0010     2.3840 ca         1 044       0.467200
      4 NAD          3.4090     0.0010     1.2510 nb         1 044      -0.619000
      5 CAE          2.0710     0.0000     1.2210 ca         1 044       0.444600
      6 CAF          1.3350     0.0010     2.4310 ca         1 044      -0.208300
      7 CAG          2.0390     0.0020     3.6580 ca         1 044       0.205100
      8 CAH          1.3780     0.0000     0.0000 ca         1 044      -0.212300
      9 CAI         -0.7140     0.0060     1.2010 ca         1 044      -0.209000
     10 CAJ         -0.0660     0.0070     2.3970 ca         1 044      -0.018000
     11 OAK          1.3790     0.0010     4.8410 os         1 044      -0.200200
     12 CAL          2.1130    -0.1020     5.9810 ca         1 044       0.040100
     13 CAM          2.2850    -1.3380     6.5850 ca         1 044      -0.070000
     14 CAN          2.6960     1.0300     6.5380 ca         1 044       0.111900
     15 CAO          3.4420     0.9250     7.6970 ca         1 044      -0.140000
     16 CAP          3.6090    -0.3130     8.3030 ca         1 044      -0.047400
     17 CAQ          3.0300    -1.4450     7.7430 ca         1 044      -0.137000
     18 NAR          4.3650    -0.4220     9.4770 ns         1 044      -0.042100
     19 CAS          5.8410    -0.7520    12.0940 c          1 044       0.648700
     20 CAT          5.0470     0.4110    11.6650 cc         1 044      -0.456400
     21 CAU          4.3330     0.5660    10.3930 c          1 044       0.657300
     22 OAV          3.7100     1.5870    10.1660 o          1 044      -0.679100
     23 NAW          5.8610     0.8100    13.6860 na         1 044      -0.133400
     24 CAX          5.1080     1.3290    12.6970 cd         1 044       0.065800
     25 NAY          6.3090    -0.4640    13.3260 n          1 044       0.078600
     26 CBA          7.1100    -1.3000    14.1110 ca         1 044      -0.065400
     27 CBB          6.7720    -1.5440    15.4350 ca         1 044      -0.095500
     28 CBC          8.2420    -1.8920    13.5660 ca         1 044      -0.095500
     29 CBD          9.0300    -2.7170    14.3430 ca         1 044      -0.085000
     30 CBE          7.5660    -2.3710    16.2080 ca         1 044      -0.085000
     31 CBF          8.6940    -2.9540    15.6630 ca         1 044      -0.095000
     32 FBG          2.5330     2.2340     5.9460 f          1 044      -0.119900
     33 CBH          4.4470     2.6830    12.7110 c3         1 044       0.072100
     34 CBI          6.1620     1.4810    14.9530 c3         1 044       0.144800
     35 CBJ          7.4410     2.3080    14.8010 c3         1 044       0.166100
     36 CBK          7.7550     3.0080    16.1250 c3         1 044      -0.031100
     37 OBL          8.5250     1.4470    14.4490 oh         1 044      -0.587800
     38 OBM         -0.6710     0.0010    -1.1820 os         1 044      -0.305900
     39 CBN         -2.0980     0.0010    -1.1160 c3         1 044       0.243700
     40 HAB          3.9970     0.0020     4.5300 ha         1 044       0.133000
     41 HAC          5.1540     0.0010     2.3600 h4         1 044      -0.026900
     42 HAH          1.9230    -0.0050    -0.9360 ha         1 044       0.133000
     43 HAI         -1.7980     0.0060     1.1800 ha         1 044       0.120000
     44 HAJ         -0.6310     0.0110     3.3210 ha         1 044       0.114000
     45 HAM          1.8330    -2.2210     6.1490 ha         1 044       0.118000
     46 HAO          3.8950     1.8070     8.1320 ha         1 044       0.164000
     47 HAQ          3.1630    -2.4110     8.2160 ha         1 044       0.118000
     48 HNAR         4.9500    -1.2210     9.6240 hn         1 044       0.209500
     49 HBB          5.8880    -1.0870    15.8620 ha         1 044       0.115500
     50 HBC          8.5060    -1.7070    12.5310 ha         1 044       0.115500
     51 HBD          9.9140    -3.1770    13.9190 ha         1 044       0.106000
     52 HBE          7.3040    -2.5600    17.2420 ha         1 044       0.106000
     53 HBF          9.3150    -3.6020    16.2710 ha         1 044       0.105000
     54 HBH          3.3930     2.5720    12.4880 hc         1 044       0.028033
     55 HBHA         4.5640     3.1320    13.6900 hc         1 044       0.028033
     56 HBHB         4.9090     3.3180    11.9650 hc         1 044       0.028033
     57 HBI          6.3020     0.7390    15.7300 h1         1 044       0.054200
     58 HBIA         5.3390     2.1340    15.2200 h1         1 044       0.054200
     59 HBJ          7.3010     3.0500    14.0250 h1         1 044       0.012700
     60 HBK          6.9090     3.6160    16.4220 hc         1 044       0.015033
     61 HBKA         7.9510     2.2650    16.8880 hc         1 044       0.015033
     62 HBKB         8.6270     3.6380    16.0020 hc         1 044       0.015033
     63 HOBL         9.2940     1.9650    14.2760 ho         1 044       0.403000
     64 HBN         -2.4350    -0.8810    -0.5840 h1         1 044      -0.002300
     65 HBNA        -2.4360     0.8880    -0.5950 h1         1 044      -0.002300
     66 HBNB        -2.5060    -0.0050    -2.1200 h1         1 044      -0.002300
     67 OAZ          6.0320    -1.7740    11.4630 o          1 044      -0.694500
@<TRIPOS>BOND
     1     1     8 ar  
     2     1     9 ar  
     3     1    38 1   
     4     2     3 ar  
     5     2     7 ar  
     6     2    40 1   
     7     3     4 ar  
     8     3    41 1   
     9     4     5 ar  
    10     5     6 ar  
    11     5     8 ar  
    12     6     7 ar  
    13     6    10 ar  
    14     7    11 1   
    15     8    42 1   
    16     9    10 ar  
    17     9    43 1   
    18    10    44 1   
    19    11    12 1   
    20    12    13 ar  
    21    12    14 ar  
    22    13    17 ar  
    23    13    45 1   
    24    14    15 ar  
    25    14    32 1   
    26    15    16 ar  
    27    15    46 1   
    28    16    17 ar  
    29    16    18 1   
    30    17    47 1   
    31    18    21 1   
    32    18    48 1   
    33    19    20 1   
    34    19    25 1   
    35    19    67 2   
    36    20    21 1   
    37    20    24 2   
    38    21    22 2   
    39    23    24 1   
    40    23    25 1   
    41    23    34 1   
    42    24    33 1   
    43    25    26 1   
    44    26    27 ar  
    45    26    28 ar  
    46    27    30 ar  
    47    27    49 1   
    48    28    29 ar  
    49    28    50 1   
    50    29    31 ar  
    51    29    51 1   
    52    30    31 ar  
    53    30    52 1   
    54    31    53 1   
    55    33    54 1   
    56    33    55 1   
    57    33    56 1   
    58    34    35 1   
    59    34    57 1   
    60    34    58 1   
    61    35    36 1   
    62    35    37 1   
    63    35    59 1   
    64    36    60 1   
    65    36    61 1   
    66    36    62 1   
    67    37    63 1   
    68    38    39 1   
    69    39    64 1   
    70    39    65 1   
    71    39    66 1   
@<TRIPOS>SUBSTRUCTURE
     1 044         1 TEMP              0 ****  ****    0 ROOT
