@<TRIPOS>MOLECULE
046
   71    75     1     0     0
SMALL
bcc


@<TRIPOS>ATOM
      1 F1          -0.1730     0.2450     0.0050 f          1 046      -0.237300
      2 C2           1.1930     0.2100    -0.1470 c3         1 046       0.687200
      3 F3           1.6670     0.0130     1.1290 f          1 046      -0.237300
      4 F4           1.4220    -0.9970    -0.7620 f          1 046      -0.237300
      5 C5           1.7830     1.4250    -0.8640 ca         1 046      -0.145300
      6 C6           1.7890     2.6930    -0.2640 ca         1 046      -0.049300
      7 C7           2.3710     3.7540    -0.9690 ca         1 046      -0.098000
      8 C9           2.9070     3.5730    -2.2370 ca         1 046      -0.157000
      9 C11          2.8900     2.2970    -2.8470 ca         1 046       0.057600
     10 C12          2.3200     1.2220    -2.1360 ca         1 046      -0.097000
     11 N14          3.5050     2.1300    -4.1030 ns         1 046      -0.460100
     12 C16          3.0340     1.2140    -5.0690 c          1 046       0.775100
     13 O17          2.1580     0.3640    -4.7950 o          1 046      -0.604100
     14 N18          3.5680     1.3080    -6.3730 n          1 046      -0.364000
     15 C19          4.8280     2.0020    -6.6630 c3         1 046       0.075000
     16 C22          5.3510     1.4560    -8.0180 c3         1 046      -0.036100
     17 C25          4.3630     0.3960    -8.3740 ca         1 046      -0.126300
     18 C26          3.3500     0.3190    -7.3670 ca         1 046       0.054600
     19 C27          2.3080    -0.6030    -7.4740 ca         1 046      -0.120000
     20 C29          2.2720    -1.4410    -8.5950 ca         1 046      -0.097000
     21 C31          3.2630    -1.3460    -9.5730 ca         1 046       0.074100
     22 C32          4.3300    -0.4330    -9.4760 ca         1 046      -0.087000
     23 O34          3.1720    -2.0730   -10.7660 os         1 046      -0.358400
     24 C35          3.2990    -3.4500   -10.6950 ca         1 046       0.664600
     25 N36          3.5130    -4.1000    -9.5220 nb         1 046      -0.762000
     26 C37          3.6180    -5.4510    -9.6400 ca         1 046       0.683900
     27 N39          3.5370    -6.2020   -10.7570 nb         1 046      -0.771000
     28 C40          3.3180    -5.5160   -11.9400 ca         1 046       0.578200
     29 C41          3.1900    -4.1030   -11.9500 ca         1 046      -0.397600
     30 N43          3.2280    -6.2940   -13.1040 ns         1 046      -0.554400
     31 C45          3.0550    -5.8370   -14.4100 c          1 046       0.670100
     32 O46          2.9540    -4.6340   -14.7010 o          1 046      -0.572100
     33 C47          2.9950    -6.9110   -15.4730 c3         1 046      -0.178100
     34 C51          1.2430     2.8980     1.1210 c3         1 046       0.202100
     35 N54          0.7400     4.2410     1.3840 n3         1 046      -0.732600
     36 C55          0.6020     4.4920     2.8130 c3         1 046       0.164800
     37 C58          0.0400     5.8940     3.1190 c3         1 046       0.168800
     38 N61         -1.1830     6.1890     2.3880 n3         1 046      -0.732600
     39 C62         -1.0510     5.9290     0.9620 c3         1 046       0.168800
     40 C65         -0.4900     4.5280     0.6580 c3         1 046       0.164800
     41 C68         -1.6870     7.5140     2.6650 c3         1 046       0.158100
     42 H1           2.4060     4.7580    -0.5140 ha         1 046       0.162000
     43 H2           3.3490     4.4370    -2.7570 ha         1 046       0.135000
     44 H3           2.2860     0.2130    -2.5870 ha         1 046       0.188000
     45 H4           4.0030     2.9310    -4.4280 hn         1 046       0.313500
     46 H5           4.6220     3.1040    -6.7310 h1         1 046       0.051700
     47 H6           5.3760     2.2680    -8.7860 hc         1 046       0.067200
     48 H7           1.5330    -0.6810    -6.6950 ha         1 046       0.178000
     49 H8           1.4660    -2.1820    -8.6970 ha         1 046       0.154000
     50 H9           5.0960    -0.3880   -10.2620 ha         1 046       0.153000
     51 H10          3.7940    -6.0060    -8.6930 h5         1 046       0.058100
     52 H11          3.0160    -3.5180   -12.8630 ha         1 046       0.204000
     53 H12          3.3120    -7.2820   -12.9810 hn         1 046       0.334500
     54 H13          3.9440    -7.5000   -15.4900 hc         1 046       0.073033
     55 H14          2.8550    -6.4180   -16.4660 hc         1 046       0.073033
     56 H15          2.1380    -7.6010   -15.2860 hc         1 046       0.073033
     57 H16          2.0900     2.6910     1.8410 h1         1 046       0.055700
     58 H17          0.4410     2.1230     1.3180 h1         1 046       0.055700
     59 H19          1.6250     4.4240     3.2780 h1         1 046       0.042200
     60 H20         -0.0580     3.7210     3.3100 h1         1 046       0.042200
     61 H21          0.8450     6.6580     2.9110 h1         1 046       0.036450
     62 H22         -0.1990     5.9340     4.2180 h1         1 046       0.036450
     63 H24         -0.3970     6.6990     0.4570 h1         1 046       0.036450
     64 H25         -2.0770     5.9940     0.5040 h1         1 046       0.036450
     65 H26         -0.2530     4.4770    -0.4420 h1         1 046       0.042200
     66 H27         -1.2910     3.7630     0.8760 h1         1 046       0.042200
     67 H28         -0.9940     8.3350     2.3290 h1         1 046       0.032033
     68 H29         -2.6710     7.6420     2.1420 h1         1 046       0.032033
     69 H30         -1.8480     7.6150     3.7700 h1         1 046       0.032033
     70 H31          5.5900     1.8210    -5.8570 h1         1 046       0.051700
     71 H32          6.3820     1.0400    -7.9080 hc         1 046       0.067200
@<TRIPOS>BOND
     1     1     2 1   
     2     2     3 1   
     3     2     4 1   
     4     2     5 1   
     5     5     6 ar  
     6     5    10 ar  
     7     6     7 ar  
     8     6    34 1   
     9     7     8 ar  
    10     7    42 1   
    11     8     9 ar  
    12     8    43 1   
    13     9    10 ar  
    14     9    11 1   
    15    10    44 1   
    16    11    12 1   
    17    11    45 1   
    18    12    13 2   
    19    12    14 1   
    20    14    15 1   
    21    14    18 1   
    22    15    16 1   
    23    15    46 1   
    24    15    70 1   
    25    16    17 1   
    26    16    47 1   
    27    16    71 1   
    28    17    18 ar  
    29    17    22 ar  
    30    18    19 ar  
    31    19    20 ar  
    32    19    48 1   
    33    20    21 ar  
    34    20    49 1   
    35    21    22 ar  
    36    21    23 1   
    37    22    50 1   
    38    23    24 1   
    39    24    25 ar  
    40    24    29 ar  
    41    25    26 ar  
    42    26    27 ar  
    43    26    51 1   
    44    27    28 ar  
    45    28    29 ar  
    46    28    30 1   
    47    29    52 1   
    48    30    31 1   
    49    30    53 1   
    50    31    32 2   
    51    31    33 1   
    52    33    54 1   
    53    33    55 1   
    54    33    56 1   
    55    34    35 1   
    56    34    57 1   
    57    34    58 1   
    58    35    36 1   
    59    35    40 1   
    60    36    37 1   
    61    36    59 1   
    62    36    60 1   
    63    37    38 1   
    64    37    61 1   
    65    37    62 1   
    66    38    39 1   
    67    38    41 1   
    68    39    40 1   
    69    39    63 1   
    70    39    64 1   
    71    40    65 1   
    72    40    66 1   
    73    41    67 1   
    74    41    68 1   
    75    41    69 1   
@<TRIPOS>SUBSTRUCTURE
     1 046         1 TEMP              0 ****  ****    0 ROOT
