@<TRIPOS>MOLECULE
046
   71    75     1     0     0
SMALL
bcc


@<TRIPOS>ATOM
      1 F1           0.0000     0.0000     0.0000 f          1 046      -0.207967
      2 C2           1.3990     0.0000     0.0000 c3         1 046       0.646200
      3 F3           1.8650     0.0000     1.3190 f          1 046      -0.207967
      4 F4           1.8660    -1.1420    -0.6600 f          1 046      -0.207967
      5 C5           1.9000     1.2320    -0.7100 ca         1 046      -0.170300
      6 C6           1.5660     2.4860    -0.2360 ca         1 046      -0.044300
      7 C7           2.0240     3.6190    -0.8850 ca         1 046      -0.087000
      8 C9           2.8180     3.4980    -2.0080 ca         1 046      -0.092000
      9 C11          3.1560     2.2400    -2.4860 ca         1 046      -0.084400
     10 C12          2.6990     1.1050    -1.8300 ca         1 046      -0.090000
     11 N14          3.9600     2.1140    -3.6250 ns         1 046      -0.047100
     12 C16          3.9390     3.0720    -4.5730 c          1 046       0.584100
     13 O17          3.3570     4.1190    -4.3680 o          1 046      -0.683100
     14 N18          4.5640     2.8690    -5.7500 n          1 046      -0.002000
     15 C19          5.1900     1.6090    -6.1630 c3         1 046       0.027000
     16 C22          5.7580     1.8820    -7.5650 c3         1 046       0.045900
     17 C25          5.3990     3.3230    -7.8490 ca         1 046      -0.142300
     18 C26          4.7060     3.8280    -6.7610 ca         1 046      -0.062400
     19 C27          4.2640     5.1520    -6.7900 ca         1 046      -0.093000
     20 C29          4.5160     5.9450    -7.8890 ca         1 046      -0.084000
     21 C31          5.2090     5.4320    -8.9750 ca         1 046       0.091100
     22 C32          5.6470     4.1170    -8.9520 ca         1 046      -0.061000
     23 O34          5.4560     6.2160   -10.0590 os         1 046      -0.333400
     24 C35          6.4010     7.1800    -9.9450 ca         1 046       0.675600
     25 N36          7.1420     7.2730    -8.8450 nb         1 046      -0.727000
     26 C37          8.0640     8.2070    -8.7260 ca         1 046       0.695900
     27 N39          8.2900     9.0860    -9.6820 nb         1 046      -0.646000
     28 C40          7.5900     9.0610   -10.8130 ca         1 046       0.430200
     29 C41          6.6120     8.0850   -10.9790 ca         1 046      -0.434600
     30 N43          7.8360     9.9930   -11.8150 ns         1 046      -0.115400
     31 C45          8.8720    10.8470   -11.7020 c          1 046       0.542100
     32 O46          9.6580    10.7280   -10.7860 o          1 046      -0.559100
     33 C47          9.0530    11.9500   -12.7130 c3         1 046      -0.068100
     34 C51          0.6990     2.6220     0.9900 c3         1 046       0.183100
     35 N54          1.5190     2.4260     2.1920 n3         1 046      -0.534600
     36 C55          0.6750     2.3130     3.3910 c3         1 046       0.148800
     37 C58          1.5600     2.0310     4.6080 c3         1 046       0.155300
     38 N61          2.5420     3.1140     4.7580 n3         1 046      -0.550600
     39 C62          3.3850     3.2260     3.5600 c3         1 046       0.155300
     40 C65          2.5010     3.5080     2.3420 c3         1 046       0.148800
     41 C68          3.3620     2.9190     5.9620 c3         1 046       0.189100
     42 H1           1.7600     4.6010    -0.5110 ha         1 046       0.115000
     43 H2           3.1760     4.3860    -2.5170 ha         1 046       0.170000
     44 H3           2.9610     0.1220    -2.2000 ha         1 046       0.121000
     45 H4           4.5830     1.3360    -3.7140 hn         1 046       0.170500
     46 H5           4.4380     0.8310    -6.2200 h1         1 046       0.021200
     47 H6           6.8360     1.7710    -7.5510 hc         1 046       0.031200
     48 H7           3.7220     5.5580    -5.9450 ha         1 046       0.148000
     49 H8           4.1730     6.9730    -7.9040 ha         1 046       0.114000
     50 H9           6.1890     3.7130    -9.7990 ha         1 046       0.112000
     51 H10          8.6510     8.2550    -7.8170 h5         1 046       0.002100
     52 H11          6.0240     8.0370   -11.8880 ha         1 046       0.135000
     53 H12          7.2740     9.9960   -12.6430 hn         1 046       0.172500
     54 H13          9.8950    12.5680   -12.4260 hc         1 046       0.024700
     55 H14          8.1560    12.5560   -12.7510 hc         1 046       0.024700
     56 H15          9.2390    11.5180   -13.6890 hc         1 046       0.024700
     57 H16         -0.0850     1.8750     0.9620 h1         1 046       0.026200
     58 H17          0.2560     3.6100     1.0110 h1         1 046       0.026200
     59 H19         -0.0290     1.5000     3.2610 h1         1 046       0.016450
     60 H20          0.1390     3.2420     3.5430 h1         1 046       0.016450
     61 H21          2.0790     1.0910     4.4660 h1         1 046       0.014700
     62 H22          0.9430     1.9790     5.4970 h1         1 046       0.014700
     63 H24          4.0890     4.0390     3.6890 h1         1 046       0.014700
     64 H25          3.9220     2.2970     3.4080 h1         1 046       0.014700
     65 H26          1.9810     4.4480     2.4850 h1         1 046       0.016450
     66 H27          3.1170     3.5610     1.4530 h1         1 046       0.016450
     67 H28          2.7190     2.8720     6.8330 h1         1 046       0.000033
     68 H29          3.9180     1.9930     5.8740 h1         1 046       0.000033
     69 H30          4.0520     3.7460     6.0660 h1         1 046       0.000033
     70 H31          6.0000     1.3660    -5.4840 h1         1 046       0.021200
     71 H32          5.2730     1.2360    -8.2870 hc         1 046       0.031200
@<TRIPOS>BOND
     1     1     2 1   
     2     2     3 1   
     3     2     4 1   
     4     2     5 1   
     5     5     6 ar  
     6     5    10 ar  
     7     6     7 ar  
     8     6    34 1   
     9     7     8 ar  
    10     7    42 1   
    11     8     9 ar  
    12     8    43 1   
    13     9    10 ar  
    14     9    11 1   
    15    10    44 1   
    16    11    12 1   
    17    11    45 1   
    18    12    13 2   
    19    12    14 1   
    20    14    15 1   
    21    14    18 1   
    22    15    16 1   
    23    15    46 1   
    24    15    70 1   
    25    16    17 1   
    26    16    47 1   
    27    16    71 1   
    28    17    18 ar  
    29    17    22 ar  
    30    18    19 ar  
    31    19    20 ar  
    32    19    48 1   
    33    20    21 ar  
    34    20    49 1   
    35    21    22 ar  
    36    21    23 1   
    37    22    50 1   
    38    23    24 1   
    39    24    25 ar  
    40    24    29 ar  
    41    25    26 ar  
    42    26    27 ar  
    43    26    51 1   
    44    27    28 ar  
    45    28    29 ar  
    46    28    30 1   
    47    29    52 1   
    48    30    31 1   
    49    30    53 1   
    50    31    32 2   
    51    31    33 1   
    52    33    54 1   
    53    33    55 1   
    54    33    56 1   
    55    34    35 1   
    56    34    57 1   
    57    34    58 1   
    58    35    36 1   
    59    35    40 1   
    60    36    37 1   
    61    36    59 1   
    62    36    60 1   
    63    37    38 1   
    64    37    61 1   
    65    37    62 1   
    66    38    39 1   
    67    38    41 1   
    68    39    40 1   
    69    39    63 1   
    70    39    64 1   
    71    40    65 1   
    72    40    66 1   
    73    41    67 1   
    74    41    68 1   
    75    41    69 1   
@<TRIPOS>SUBSTRUCTURE
     1 046         1 TEMP              0 ****  ****    0 ROOT
