@<TRIPOS>MOLECULE
047
   54    57     1     0     0
SMALL
bcc


@<TRIPOS>ATOM
      1 N1          -0.0530    -0.0770    -0.1650 na         1 047       0.038500
      2 C2           1.3500    -0.2230    -0.1900 ca         1 047      -0.043200
      3 C3           1.8300    -0.1340     1.1680 ca         1 047      -0.082800
      4 C4           0.6640     0.0720     2.0000 cc         1 047      -0.290400
      5 C5          -0.4540     0.0950     1.1510 cd         1 047      -0.016100
      6 C7           0.6630     0.1770     3.4570 c3         1 047       0.225000
      7 N10          1.3360     1.4480     3.9200 ny         1 047      -0.772000
      8 C12          0.4620     2.6460     3.7800 c3         1 047       0.104800
      9 C15          1.1390     3.9540     4.1830 c3         1 047      -0.098700
     10 C17          1.5400     3.9730     5.6500 c3         1 047      -0.082900
     11 C20          2.0960     5.3340     6.0240 c3         1 047      -0.078400
     12 C23          3.2610     5.7170     5.1340 c3         1 047      -0.084400
     13 C26          2.8880     5.6510     3.6670 c3         1 047      -0.078400
     14 C29          2.3310     4.2890     3.2990 c3         1 047      -0.082900
     15 C32          3.1970    -0.2600     1.4240 ca         1 047      -0.130000
     16 C34          4.0620    -0.4670     0.3610 ca         1 047      -0.111000
     17 C36          3.5860    -0.5550    -0.9610 ca         1 047      -0.109000
     18 C38          2.2370    -0.4390    -1.2570 ca         1 047      -0.105000
     19 C40         -0.9280    -0.1310    -1.2780 ca         1 047      -0.042200
     20 C41         -2.1150    -0.8890    -1.2080 ca         1 047      -0.123000
     21 C43         -2.9750    -0.9300    -2.3000 ca         1 047      -0.116000
     22 C45         -2.6770    -0.2330    -3.4770 ca         1 047      -0.047300
     23 C46         -1.4970     0.5170    -3.5420 ca         1 047      -0.116000
     24 C48         -0.6260     0.5760    -2.4590 ca         1 047      -0.123000
     25 C50         -3.5900    -0.3010    -4.6410 c3         1 047      -0.066800
     26 H5          -1.5130     0.2120     1.4050 h4         1 047       0.183000
     27 H71         -0.3830     0.1680     3.8750 hx         1 047       0.098200
     28 H72          1.2540    -0.6720     3.9130 hx         1 047       0.098200
     29 HN10         2.1830     1.5910     3.3520 hn         1 047       0.448800
     30 H121         0.1410     2.7010     2.6990 hx         1 047       0.101700
     31 H122        -0.4490     2.4820     4.4230 hx         1 047       0.101700
     32 H15          0.3540     4.7530     4.0260 hc         1 047       0.099700
     33 H171         2.3240     3.1960     5.8520 hc         1 047       0.039700
     34 H172         0.6500     3.7400     6.2910 hc         1 047       0.039700
     35 H201         2.4290     5.3160     7.0940 hc         1 047       0.059700
     36 H202         1.2850     6.1040     5.9360 hc         1 047       0.059700
     37 H231         3.5940     6.7580     5.3870 hc         1 047       0.055700
     38 H232         4.1260     5.0310     5.3320 hc         1 047       0.055700
     39 H261         2.1250     6.4410     3.4360 hc         1 047       0.059700
     40 H262         3.7920     5.8630     3.0380 hc         1 047       0.059700
     41 H291         2.0190     4.2860     2.2220 hc         1 047       0.039700
     42 H292         3.1410     3.5230     3.4250 hc         1 047       0.039700
     43 H32          3.5780    -0.2190     2.4540 ha         1 047       0.117000
     44 H34          5.1430    -0.5750     0.5460 ha         1 047       0.148000
     45 H36          4.3060    -0.7290    -1.7770 ha         1 047       0.153000
     46 H38          1.8680    -0.5250    -2.2900 ha         1 047       0.158000
     47 H41         -2.3660    -1.4580    -0.2990 ha         1 047       0.144500
     48 H43         -3.9000    -1.5260    -2.2380 ha         1 047       0.151000
     49 H46         -1.2530     1.0710    -4.4620 ha         1 047       0.151000
     50 H48          0.2940     1.1770    -2.5330 ha         1 047       0.144500
     51 H501        -3.3080    -1.1680    -5.2920 hc         1 047       0.058700
     52 H502        -3.5280     0.6310    -5.2550 hc         1 047       0.058700
     53 H503        -4.6490    -0.4410    -4.3130 hc         1 047       0.058700
     54 H102         1.6150     1.3520     4.9010 hn         1 047       0.448800
@<TRIPOS>BOND
     1     1     2 1   
     2     1     5 1   
     3     1    19 1   
     4     2     3 ar  
     5     2    18 ar  
     6     3     4 1   
     7     3    15 ar  
     8     4     5 2   
     9     4     6 1   
    10     5    26 1   
    11     6     7 1   
    12     6    27 1   
    13     6    28 1   
    14     7     8 1   
    15     7    29 1   
    16     7    54 1   
    17     8     9 1   
    18     8    30 1   
    19     8    31 1   
    20     9    10 1   
    21     9    14 1   
    22     9    32 1   
    23    10    11 1   
    24    10    33 1   
    25    10    34 1   
    26    11    12 1   
    27    11    35 1   
    28    11    36 1   
    29    12    13 1   
    30    12    37 1   
    31    12    38 1   
    32    13    14 1   
    33    13    39 1   
    34    13    40 1   
    35    14    41 1   
    36    14    42 1   
    37    15    16 ar  
    38    15    43 1   
    39    16    17 ar  
    40    16    44 1   
    41    17    18 ar  
    42    17    45 1   
    43    18    46 1   
    44    19    20 ar  
    45    19    24 ar  
    46    20    21 ar  
    47    20    47 1   
    48    21    22 ar  
    49    21    48 1   
    50    22    23 ar  
    51    22    25 1   
    52    23    24 ar  
    53    23    49 1   
    54    24    50 1   
    55    25    51 1   
    56    25    52 1   
    57    25    53 1   
@<TRIPOS>SUBSTRUCTURE
     1 047         1 TEMP              0 ****  ****    0 ROOT
