@<TRIPOS>MOLECULE
molecule
   53    56     1     0     0
SMALL
bcc


@<TRIPOS>ATOM
      1 N1           0.0000     0.0000     0.0000 na         1 047       0.013500
      2 C2           1.3770     0.0000     0.0000 ca         1 047      -0.035200
      3 C3           1.7880     0.0000     1.3350 ca         1 047      -0.082800
      4 C4           0.6110    -0.0000     2.1090 cc         1 047      -0.133400
      5 C5          -0.4730    -0.0000     1.2850 cd         1 047      -0.109100
      6 C7           0.5490    -0.0010     3.6090 c3         1 047       0.234000
      7 N10          0.5280     1.3610     4.1590 n7         1 047      -0.819200
      8 C12          0.5220     1.3650     5.5830 c3         1 047       0.169800
      9 C15          0.5100     2.8050     6.0950 c3         1 047      -0.067700
     10 C17          1.7550     3.5620     5.6130 c3         1 047      -0.069400
     11 C20          1.7930     4.9880     6.1570 c3         1 047      -0.076900
     12 C23          1.6850     5.0130     7.6790 c3         1 047      -0.077400
     13 C26          0.4510     4.2620     8.1660 c3         1 047      -0.076900
     14 C29          0.4110     2.8340     7.6270 c3         1 047      -0.069400
     15 C32          3.1670    -0.0010     1.6200 ca         1 047      -0.069000
     16 C34          4.0830    -0.0000     0.5620 ca         1 047      -0.159000
     17 C36          3.6450     0.0000    -0.7600 ca         1 047      -0.107000
     18 C38          2.2810     0.0000    -1.0680 ca         1 047      -0.152000
     19 C40         -0.8160     0.0020    -1.1350 ca         1 047       0.015800
     20 C41         -2.0650    -0.6020    -1.0780 ca         1 047      -0.149500
     21 C43         -2.8790    -0.6020    -2.2100 ca         1 047      -0.107000
     22 C45         -2.4370     0.0030    -3.3870 ca         1 047      -0.095300
     23 C46         -1.1810     0.6060    -3.4320 ca         1 047      -0.107000
     24 C48         -0.3660     0.6050    -2.3000 ca         1 047      -0.149500
     25 C50         -3.3090     0.0050    -4.5960 c3         1 047      -0.047800
     26 H5          -1.3480    -0.5850     1.5400 h4         1 047       0.172000
     27 H71         -0.3470    -0.5220     3.9250 h1         1 047       0.032200
     28 H72          1.4160    -0.5230     3.9970 h1         1 047       0.032200
     29 HN10        -0.2810     1.8450     3.8210 hn         1 047       0.358800
     30 H121        -0.3600     0.8480     5.9410 h1         1 047       0.026200
     31 H122         1.4080     0.8600     5.9480 h1         1 047       0.026200
     32 H15         -0.3630     3.3040     5.6930 hc         1 047       0.042700
     33 H171         1.7470     3.5980     4.5300 hc         1 047       0.043950
     34 H172         2.6400     3.0340     5.9480 hc         1 047       0.043950
     35 H201         0.9660     5.5470     5.7370 hc         1 047       0.038450
     36 H202         2.7260     5.4520     5.8630 hc         1 047       0.038450
     37 H231         2.5690     4.5510     8.1020 hc         1 047       0.037700
     38 H232         1.6250     6.0430     8.0100 hc         1 047       0.037700
     39 H261         0.4640     4.2290     9.2490 hc         1 047       0.038450
     40 H262        -0.4360     4.7890     7.8340 hc         1 047       0.038450
     41 H291        -0.5200     2.3700     7.9280 hc         1 047       0.043950
     42 H292         1.2410     2.2770     8.0440 hc         1 047       0.043950
     43 H32          3.5150    -0.0010     2.6460 ha         1 047       0.137000
     44 H34          5.1450    -0.0000     0.7730 ha         1 047       0.130000
     45 H36          4.3720     0.0010    -1.5630 ha         1 047       0.129000
     46 H38          1.9370     0.0010    -2.0950 ha         1 047       0.140000
     47 H41         -2.4040    -1.0710    -0.1620 ha         1 047       0.144500
     48 H43         -3.8550    -1.0710    -2.1750 ha         1 047       0.136500
     49 H46         -0.8380     1.0750    -4.3460 ha         1 047       0.136500
     50 H48          0.6110     1.0720    -2.3300 ha         1 047       0.144500
     51 H501        -4.3490     0.0100    -4.2920 hc         1 047       0.044700
     52 H502        -3.1100    -0.8810    -5.1870 hc         1 047       0.044700
     53 H503        -3.1030     0.8880    -5.1890 hc         1 047       0.044700
@<TRIPOS>BOND
     1     1     2 1   
     2     1    19 1   
     3     1     5 1   
     4     2    18 ar  
     5     2     3 ar  
     6     3    15 ar  
     7     3     4 1   
     8     4     6 1   
     9     4     5 2   
    10     5    26 1   
    11     6     7 1   
    12     6    27 1   
    13     6    28 1   
    14     7     8 1   
    15     7    29 1   
    16     8     9 1   
    17     8    30 1   
    18     8    31 1   
    19     9    14 1   
    20     9    10 1   
    21     9    32 1   
    22    10    11 1   
    23    10    33 1   
    24    10    34 1   
    25    11    12 1   
    26    11    35 1   
    27    11    36 1   
    28    12    13 1   
    29    12    37 1   
    30    12    38 1   
    31    13    14 1   
    32    13    39 1   
    33    13    40 1   
    34    14    41 1   
    35    14    42 1   
    36    15    16 ar  
    37    15    43 1   
    38    16    17 ar  
    39    16    44 1   
    40    17    18 ar  
    41    17    45 1   
    42    18    46 1   
    43    19    20 ar  
    44    19    24 ar  
    45    20    21 ar  
    46    20    47 1   
    47    21    22 ar  
    48    21    48 1   
    49    22    23 ar  
    50    22    25 1   
    51    23    24 ar  
    52    23    49 1   
    53    24    50 1   
    54    25    51 1   
    55    25    52 1   
    56    25    53 1   
@<TRIPOS>SUBSTRUCTURE
     1 047         1 TEMP              0 ****  ****    0 ROOT
