@<TRIPOS>MOLECULE
048
   50    53     1     0     0
SMALL
bcc


@<TRIPOS>ATOM
      1 OAA         -0.2170     0.1820    -0.4410 o          1 048      -0.526100
      2 OAB          8.3800    -0.2630     5.4680 o          1 048      -0.585100
      3 CAD         11.9310    -2.9120     7.8290 ca         1 048      -0.105000
      4 CAE         10.5910    -2.7190     8.1700 ca         1 048      -0.136000
      5 CAF         12.3970    -2.5090     6.5770 ca         1 048      -0.136000
      6 CAG          9.7160    -2.1280     7.2600 ca         1 048      -0.089500
      7 CAH         11.5260    -1.9230     5.6590 ca         1 048      -0.089500
      8 CAI          8.1240    -1.0980     0.2290 ca         1 048      -0.111000
      9 CAJ          7.0790    -0.1970     0.3720 ca         1 048      -0.165000
     10 CAK          4.0300     0.0500     0.4970 ca         1 048      -0.193000
     11 CAL          2.7690     0.0470    -0.0850 ca         1 048      -0.058000
     12 CAM          3.5660     2.2510     1.4150 ca         1 048      -0.186000
     13 CAN          7.4670    -0.1480     2.7780 ca         1 048      -0.196000
     14 CAO         -0.1050     3.4760    -0.9700 c3         1 048      -0.069400
     15 CAP          1.0020     4.1440    -0.1840 c3         1 048      -0.077400
     16 CAQ          0.3280     2.1870    -1.6330 c3         1 048      -0.176400
     17 CAR          1.3790     3.3850     1.0740 c3         1 048      -0.045100
     18 NAT          5.7400     1.2680     1.8140 nu         1 048      -0.628000
     19 CAU          0.5950     1.0930    -0.6330 c          1 048       0.586700
     20 CAV          9.2140    -1.0930     5.0630 c          1 048       0.686700
     21 CAW          8.8590    -1.5290     1.3400 ca         1 048       0.035900
     22 CAX          4.4610     1.1670     1.2460 ca         1 048       0.174600
     23 CAY          6.7340     0.2870     1.6510 ca         1 048       0.161600
     24 CAZ         10.1830    -1.7370     5.9990 ca         1 048      -0.149600
     25 CBA          2.3020     2.2410     0.8240 ca         1 048      -0.008300
     26 CBB          8.5390    -1.0470     2.6490 ca         1 048       0.076600
     27 CBC          1.9070     1.1390     0.0490 ca         1 048      -0.194600
     28 HAD         12.6200    -3.3770     8.5490 ha         1 048       0.138000
     29 HAE         10.2240    -3.0290     9.1600 ha         1 048       0.140000
     30 HAF         13.4550    -2.6520     6.3120 ha         1 048       0.140000
     31 HAG          8.6620    -1.9540     7.5260 ha         1 048       0.146000
     32 HAH         11.9110    -1.5940     4.6820 ha         1 048       0.146000
     33 HAI          8.3940    -1.4790    -0.7680 ha         1 048       0.151000
     34 HAJ          6.5320     0.1450    -0.5200 ha         1 048       0.153000
     35 HAK          4.6770    -0.8330     0.3840 ha         1 048       0.147000
     36 HAL          2.4360    -0.8350    -0.6560 ha         1 048       0.144000
     37 HAM          3.8660     3.1210     2.0200 ha         1 048       0.138000
     38 HAN          7.1960     0.2330     3.7790 ha         1 048       0.179000
     39 HAO         -0.4540     4.1830    -1.7710 hc         1 048       0.049200
     40 HAOA        -0.9810     3.2760    -0.2980 hc         1 048       0.049200
     41 HAP          0.6560     5.1700     0.1130 hc         1 048       0.047200
     42 HAPA         1.9070     4.2720    -0.8350 hc         1 048       0.047200
     43 HAQ          1.2580     2.3600    -2.2370 hc         1 048       0.067200
     44 HAQA        -0.4810     1.8450    -2.3330 hc         1 048       0.067200
     45 HAR          0.4490     2.9940     1.5720 hc         1 048       0.055200
     46 HARA         1.8580     4.1030     1.7940 hc         1 048       0.055200
     47 HNAS         9.9870    -2.1890     3.5160 hn         1 048       0.331500
     48 HNAT         5.7640     1.7410     2.6940 hn         1 048       0.428800
     49 FAC          9.8780    -2.4100     1.1600 f          1 048      -0.149900
     50 NAS          9.2970    -1.5010     3.7360 ns         1 048      -0.467100
@<TRIPOS>BOND
     1     1    19 2   
     2     2    20 2   
     3     3     4 ar  
     4     3     5 ar  
     5     3    28 1   
     6     4     6 ar  
     7     4    29 1   
     8     5     7 ar  
     9     5    30 1   
    10     6    24 ar  
    11     6    31 1   
    12     7    24 ar  
    13     7    32 1   
    14     8     9 ar  
    15     8    21 ar  
    16     8    33 1   
    17     9    23 ar  
    18     9    34 1   
    19    10    11 ar  
    20    10    22 ar  
    21    10    35 1   
    22    11    27 ar  
    23    11    36 1   
    24    12    22 ar  
    25    12    25 ar  
    26    12    37 1   
    27    13    23 ar  
    28    13    26 ar  
    29    13    38 1   
    30    14    15 1   
    31    14    16 1   
    32    14    39 1   
    33    14    40 1   
    34    15    17 1   
    35    15    41 1   
    36    15    42 1   
    37    16    19 1   
    38    16    43 1   
    39    16    44 1   
    40    17    25 1   
    41    17    45 1   
    42    17    46 1   
    43    18    22 1   
    44    18    23 1   
    45    18    48 1   
    46    19    27 1   
    47    20    24 1   
    48    20    50 1   
    49    21    26 ar  
    50    21    49 1   
    51    25    27 ar  
    52    26    50 1   
    53    47    50 1   
@<TRIPOS>SUBSTRUCTURE
     1 048         1 TEMP              0 ****  ****    0 ROOT
