@<TRIPOS>MOLECULE
molecule
   50    53     1     0     0
SMALL
bcc


@<TRIPOS>ATOM
      1 OAA          0.0000     0.0000     0.0000 o          1 048      -0.513100
      2 OAB          7.3940     2.1840    -1.6860 o          1 048      -0.599100
      3 CAD          7.2210     2.0890    -7.1410 ca         1 048      -0.126000
      4 CAE          6.4820     2.9490    -6.3470 ca         1 048      -0.122000
      5 CAF          8.0010     1.1020    -6.5630 ca         1 048      -0.122000
      6 CAG          6.5190     2.8270    -4.9730 ca         1 048      -0.117000
      7 CAH          8.0460     0.9700    -5.1900 ca         1 048      -0.117000
      8 CAI          9.2070    -0.2090     1.6100 ca         1 048      -0.093000
      9 CAJ          8.0370     0.1650     2.2410 ca         1 048      -0.242000
     10 CAK          4.3290     0.0000     0.5400 ca         1 048      -0.167000
     11 CAL          3.0730     0.0000     0.0000 ca         1 048      -0.063000
     12 CAM          3.6870     1.7560     2.0720 ca         1 048      -0.163000
     13 CAN          7.0610     0.7180     0.1130 ca         1 048      -0.203000
     14 CAO         -0.0790     3.2540     0.1330 c3         1 048      -0.074400
     15 CAP          1.0110     3.7340     1.0790 c3         1 048      -0.083400
     16 CAQ          0.3730     2.1980    -0.8430 c3         1 048      -0.172400
     17 CAR          1.3610     2.6700     2.1130 c3         1 048      -0.041100
     18 NAT          5.9320     0.8850     2.1030 nu         1 048      -0.595000
     19 CAU          0.7670     0.9350    -0.1000 c          1 048       0.584700
     20 CAV          7.7220     1.4220    -2.5740 c          1 048       0.597700
     21 CAW          9.3110    -0.1240     0.2340 ca         1 048       0.040900
     22 CAX          4.6490     0.8800     1.5720 ca         1 048       0.163600
     23 CAY          6.9600     0.6300     1.4950 ca         1 048       0.201600
     24 CAZ          7.3040     1.8350    -4.3850 ca         1 048      -0.025600
     25 CBA          2.4290     1.7510     1.5450 ca         1 048      -0.026300
     26 CBB          8.2380     0.3400    -0.5190 ca         1 048       0.096600
     27 CBC          2.1090     0.8880     0.4940 ca         1 048      -0.184600
     28 HAD          7.1880     2.1890    -8.2190 ha         1 048       0.135000
     29 HAE          5.8730     3.7190    -6.8060 ha         1 048       0.138500
     30 HAF          8.5760     0.4320    -7.1900 ha         1 048       0.138500
     31 HAG          5.9400     3.5010    -4.3530 ha         1 048       0.142000
     32 HAH          8.6570     0.1980    -4.7390 ha         1 048       0.142000
     33 HAI         10.0450    -0.5710     2.1940 ha         1 048       0.144000
     34 HAJ          7.9580     0.0970     3.3190 ha         1 048       0.132000
     35 HAK          5.0810    -0.6780     0.1550 ha         1 048       0.150000
     36 HAL          2.8250    -0.6840    -0.8020 ha         1 048       0.144000
     37 HAM          3.9370     2.4390     2.8740 ha         1 048       0.139000
     38 HAN          6.2230     1.0790    -0.4710 ha         1 048       0.170000
     39 HAO         -0.4440     4.1060    -0.4280 hc         1 048       0.048200
     40 HAOA        -0.8920     2.8500     0.7240 hc         1 048       0.048200
     41 HAP          0.6660     4.6230     1.5920 hc         1 048       0.050200
     42 HAPA         1.8980     3.9720     0.5040 hc         1 048       0.050200
     43 HAQ          1.2380     2.5680    -1.3800 hc         1 048       0.067700
     44 HAQA        -0.4500     1.9660    -1.5090 hc         1 048       0.067700
     45 HAR          1.7530     3.1570     2.9970 hc         1 048       0.058700
     46 HARA         0.4740     2.0850     2.3270 hc         1 048       0.058700
     47 HNAS         8.6270    -0.3990    -2.4020 hn         1 048       0.299500
     48 HNAT         6.0690     1.0640     3.0780 hn         1 048       0.441800
     49 FAC         10.4570    -0.4920    -0.3800 f          1 048      -0.148900
     50 NAS          8.3430     0.4260    -1.9120 ns         1 048      -0.453100
@<TRIPOS>BOND
     1     1    19 2   
     2     2    20 2   
     3    49    21 1   
     4     3     4 ar  
     5     3     5 ar  
     6     4     6 ar  
     7     5     7 ar  
     8     6    24 ar  
     9     7    24 ar  
    10     8     9 ar  
    11     8    21 ar  
    12     9    23 ar  
    13    10    11 ar  
    14    10    22 ar  
    15    11    27 ar  
    16    12    22 ar  
    17    12    25 ar  
    18    13    23 ar  
    19    13    26 ar  
    20    14    15 1   
    21    14    16 1   
    22    15    17 1   
    23    16    19 1   
    24    17    25 1   
    25    50    20 1   
    26    50    26 1   
    27    18    22 1   
    28    18    23 1   
    29    19    27 1   
    30    20    24 1   
    31    21    26 ar  
    32    25    27 ar  
    33     3    28 1   
    34     4    29 1   
    35     5    30 1   
    36     6    31 1   
    37     7    32 1   
    38     8    33 1   
    39     9    34 1   
    40    10    35 1   
    41    11    36 1   
    42    12    37 1   
    43    13    38 1   
    44    14    39 1   
    45    14    40 1   
    46    15    41 1   
    47    15    42 1   
    48    16    43 1   
    49    16    44 1   
    50    17    45 1   
    51    17    46 1   
    52    50    47 1   
    53    18    48 1   
@<TRIPOS>SUBSTRUCTURE
     1 048         1 TEMP              0 ****  ****    0 ROOT
