@<TRIPOS>MOLECULE
049
   37    38     1     0     0
SMALL
bcc


@<TRIPOS>ATOM
      1 C4           0.0000     0.0000     0.0000 ca         1 049      -0.095500
      2 C5           1.3830     0.0000     0.0000 ca         1 049      -0.101500
      3 C6           2.0740     0.0000     1.1970 ca         1 049      -0.092300
      4 C7           4.0900     1.4420     1.1990 c3         1 049       0.013700
      5 C8           3.5800    -0.0000     1.1980 c3         1 049       0.008900
      6 C10          6.2240     0.6690     0.1540 cx         1 049       0.031800
      7 C9           5.6150     1.4440     1.3240 c3         1 049       0.198100
      8 C12          7.6100     0.0510     0.3520 cx         1 049       0.142400
      9 O13          6.4190    -0.7370     0.3170 op         1 049      -0.372600
     10 C11          5.8650     1.1830    -1.2410 c3         1 049       0.017900
     11 N22          3.7030     2.0980    -0.0530 ns         1 049      -0.211900
     12 C23          3.7330     3.4420    -0.1460 c          1 049       0.573100
     13 C18          3.2200     4.1220    -1.3900 c3         1 049      -0.064100
     14 O49          4.1710     4.1040     0.7700 o          1 049      -0.658100
     15 C3          -0.6910     0.0040     1.1960 ca         1 049      -0.103000
     16 C2          -0.0000     0.0110     2.3940 ca         1 049      -0.095500
     17 C1           1.3810    -0.0000     2.3940 ca         1 049      -0.101500
     18 H4          -0.5420    -0.0030    -0.9380 ha         1 049       0.102000
     19 H5           1.9250    -0.0030    -0.9380 ha         1 049       0.104500
     20 H7           3.6580     1.9770     2.0360 h1         1 049       0.055700
     21 H8           3.9410    -0.5120     2.0830 hc         1 049       0.046700
     22 H8A          3.9410    -0.5110     0.3140 hc         1 049       0.046700
     23 H9           5.9770     2.4640     1.3090 h1         1 049       0.037700
     24 H12          8.2330     0.0010    -0.5330 h1         1 049       0.042700
     25 H12A         8.0520     0.1910     1.3310 h1         1 049       0.042700
     26 H11          5.7410     2.2590    -1.2090 hc         1 049       0.014700
     27 H11A         6.6600     0.9320    -1.9340 hc         1 049       0.014700
     28 H11B         4.9410     0.7230    -1.5690 hc         1 049       0.014700
     29 HN22         3.3680     1.5510    -0.8210 hn         1 049       0.192500
     30 H18          3.0800     3.3860    -2.1720 hc         1 049       0.022033
     31 H18A         2.2750     4.6040    -1.1740 hc         1 049       0.022033
     32 H18B         3.9380     4.8640    -1.7170 hc         1 049       0.022033
     33 H3          -1.7740     0.0090     1.1960 ha         1 049       0.103000
     34 H2          -0.5420     0.0130     3.3320 ha         1 049       0.102000
     35 H1           1.9220     0.0020     3.3320 ha         1 049       0.104500
     36 O21          5.9920     0.8230     2.5550 oh         1 049      -0.572800
     37 HO21         6.2960     1.4800     3.1590 ho         1 049       0.394000
@<TRIPOS>BOND
     1     1     2 ar  
     2     1    15 ar  
     3     1    18 1   
     4     2     3 ar  
     5     2    19 1   
     6     3     5 1   
     7     3    17 ar  
     8     4     5 1   
     9     4     7 1   
    10     4    11 1   
    11     4    20 1   
    12     5    21 1   
    13     5    22 1   
    14     6     7 1   
    15     6     8 1   
    16     6     9 1   
    17     6    10 1   
    18     7    23 1   
    19     7    36 1   
    20     8     9 1   
    21     8    24 1   
    22     8    25 1   
    23    10    26 1   
    24    10    27 1   
    25    10    28 1   
    26    11    12 1   
    27    11    29 1   
    28    12    13 1   
    29    12    14 2   
    30    13    30 1   
    31    13    31 1   
    32    13    32 1   
    33    15    16 ar  
    34    15    33 1   
    35    16    17 ar  
    36    16    34 1   
    37    17    35 1   
    38    36    37 1   
@<TRIPOS>SUBSTRUCTURE
     1 049         1 TEMP              0 ****  ****    0 ROOT
