@<TRIPOS>MOLECULE
04A
   59    62     1     0     0
SMALL
bcc


@<TRIPOS>ATOM
      1 OAA          0.0000     0.0000     0.0000 o          1 04A      -0.538100
      2 OAB         -0.0060     9.2130   -11.8500 o          1 04A      -0.538100
      3 CAC         -0.7990    -0.0030     4.5600 ca         1 04A      -0.095500
      4 CAD          1.5140    13.3740   -13.1690 ca         1 04A      -0.095500
      5 CAE         -0.3420     1.1950     4.0420 ca         1 04A      -0.096250
      6 CAF         -0.3580    -1.2000     4.0260 ca         1 04A      -0.096250
      7 CAG          0.7430    12.6990   -14.0980 ca         1 04A      -0.096250
      8 CAH          1.2510    13.2320   -11.8200 ca         1 04A      -0.096250
      9 CAI          0.5520     1.1950     2.9880 ca         1 04A      -0.082500
     10 CAJ          0.5400    -1.1980     2.9750 ca         1 04A      -0.082500
     11 CAK         -0.2940    11.8880   -13.6770 ca         1 04A      -0.082500
     12 CAL          0.2140    12.4200   -11.3990 ca         1 04A      -0.082500
     13 CAM         -0.1550     1.4450    -6.6110 c3         1 04A       0.081700
     14 CAN         -0.6350     3.2120    -8.7800 c3         1 04A       0.081700
     15 CAP         -0.9630     3.3860   -10.2640 c3         1 04A      -0.000200
     16 CAQ          1.9670     0.0000     1.3050 c3         1 04A      -0.031100
     17 CAR         -1.6890    10.8680   -11.8690 c3         1 04A      -0.031100
     18 NAS         -0.5760     0.0020    -3.6700 nc         1 04A      -0.237500
     19 NAT         -0.0510     5.6010   -10.9870 nc         1 04A      -0.237500
     20 NAU         -0.1020     0.0010    -2.4990 nc         1 04A      -0.293000
     21 NAV         -0.3170     6.8130   -11.2160 nc         1 04A      -0.293000
     22 NAW          1.8870     0.0010    -1.1670 ns         1 04A      -0.071900
     23 NAX         -2.0160     8.4980   -11.2390 ns         1 04A      -0.071900
     24 SAY         -0.5460     1.4450    -8.3820 ss         1 04A      -0.400200
     25 SAZ          1.8960     0.0020    -3.9330 ss         1 04A      -0.394800
     26 SBA         -2.4760     5.8690   -10.5160 ss         1 04A      -0.394800
     27 CBB          1.2130     0.0000     0.0000 c          1 04A       0.529600
     28 CBC         -1.1760     9.4680   -11.6520 c          1 04A       0.529600
     29 CBD          0.9880    -0.0010     2.4500 ca         1 04A      -0.079300
     30 CBE         -0.5600    11.7500   -12.3280 ca         1 04A      -0.079300
     31 CBF          0.2810     0.0030    -4.6410 cd         1 04A       0.385200
     32 CBG         -1.0360     4.8560   -10.5950 cd         1 04A       0.385200
     33 CBH          1.1910     0.0010    -2.3720 cd         1 04A       0.383800
     34 CBI         -1.5420     7.2060   -11.0390 cd         1 04A       0.383800
     35 HAC         -1.5010    -0.0040     5.3850 ha         1 04A       0.101500
     36 HAE         -0.6850     2.1330     4.4620 ha         1 04A       0.102000
     37 HAF         -0.7130    -2.1380     4.4340 ha         1 04A       0.102000
     38 HAG          0.9510    12.8080   -15.1560 ha         1 04A       0.102000
     39 HAH          1.8560    13.7590   -11.0920 ha         1 04A       0.102000
     40 HAI          0.9070     2.1340     2.5790 ha         1 04A       0.101500
     41 HAJ          0.8840    -2.1360     2.5560 ha         1 04A       0.101500
     42 HAK         -0.8990    11.3610   -14.4050 ha         1 04A       0.101500
     43 HAL          0.0060    12.3110   -10.3410 ha         1 04A       0.101500
     44 HAM          0.7870     1.9560    -6.4490 h1         1 04A       0.042200
     45 HAMA        -0.9400     1.9560    -6.0670 h1         1 04A       0.042200
     46 HAN         -1.4080     3.6790    -8.1820 h1         1 04A       0.042200
     47 HANA         0.3190     3.6790    -8.5640 h1         1 04A       0.042200
     48 HAP         -1.9170     2.9190   -10.4800 hc         1 04A       0.044200
     49 HAPA        -0.1900     2.9190   -10.8620 hc         1 04A       0.044200
     50 HAQ          2.5900     0.8850     1.3620 hc         1 04A       0.030700
     51 HAQA         2.5910    -0.8840     1.3620 hc         1 04A       0.030700
     52 HAR         -2.4660    10.8550   -12.6250 hc         1 04A       0.030700
     53 HARA        -2.0950    11.2520   -10.9410 hc         1 04A       0.030700
     54 HNAW         2.8880    -0.0150    -1.1680 hn         1 04A       0.174500
     55 HNAX        -2.9810     8.7070   -11.0760 hn         1 04A       0.174500
     56 CAO         -0.0440     0.0030    -6.1130 c3         1 04A      -0.000200
     57 HAD          2.3260    14.0090   -13.4990 ha         1 04A       0.101500
     58 HAO         -0.9860    -0.5080    -6.2750 hc         1 04A       0.044200
     59 HAOA         0.7420    -0.5080    -6.6560 hc         1 04A       0.044200
@<TRIPOS>BOND
     1     1    27 2   
     2     2    28 2   
     3     3     5 ar  
     4     3     6 ar  
     5     3    35 1   
     6     4     7 ar  
     7     4     8 ar  
     8     4    57 1   
     9     5     9 ar  
    10     5    36 1   
    11     6    10 ar  
    12     6    37 1   
    13     7    11 ar  
    14     7    38 1   
    15     8    12 ar  
    16     8    39 1   
    17     9    29 ar  
    18     9    40 1   
    19    10    29 ar  
    20    10    41 1   
    21    11    30 ar  
    22    11    42 1   
    23    12    30 ar  
    24    12    43 1   
    25    13    24 1   
    26    13    44 1   
    27    13    45 1   
    28    13    56 1   
    29    14    15 1   
    30    14    24 1   
    31    14    46 1   
    32    14    47 1   
    33    15    32 1   
    34    15    48 1   
    35    15    49 1   
    36    16    27 1   
    37    16    29 1   
    38    16    50 1   
    39    16    51 1   
    40    17    28 1   
    41    17    30 1   
    42    17    52 1   
    43    17    53 1   
    44    18    20 1   
    45    18    31 2   
    46    19    21 1   
    47    19    32 2   
    48    20    33 2   
    49    21    34 2   
    50    22    27 1   
    51    22    33 1   
    52    22    54 1   
    53    23    28 1   
    54    23    34 1   
    55    23    55 1   
    56    25    31 1   
    57    25    33 1   
    58    26    32 1   
    59    26    34 1   
    60    31    56 1   
    61    56    58 1   
    62    56    59 1   
@<TRIPOS>SUBSTRUCTURE
     1 04A         1 TEMP              0 ****  ****    0 ROOT
