@<TRIPOS>MOLECULE
molecule
   59    62     1     0     0
SMALL
bcc


@<TRIPOS>ATOM
      1 OAA          0.0000     0.0000     0.0000 o          1 04A      -0.504100
      2 OAB         -0.0060     9.2130   -11.8500 o          1 04A      -0.504100
      3 CAC         -0.7990    -0.0030     4.5600 ca         1 04A      -0.120000
      4 CAD          1.5140    13.3740   -13.1690 ca         1 04A      -0.120000
      5 CAE         -0.3420     1.1950     4.0420 ca         1 04A      -0.124250
      6 CAF         -0.3580    -1.2000     4.0260 ca         1 04A      -0.124250
      7 CAG          0.7430    12.6990   -14.0980 ca         1 04A      -0.124250
      8 CAH          1.2510    13.2320   -11.8200 ca         1 04A      -0.124250
      9 CAI          0.5520     1.1950     2.9880 ca         1 04A      -0.107250
     10 CAJ          0.5400    -1.1980     2.9750 ca         1 04A      -0.107250
     11 CAK         -0.2940    11.8880   -13.6770 ca         1 04A      -0.107250
     12 CAL          0.2140    12.4200   -11.3990 ca         1 04A      -0.107250
     13 CAM         -0.1550     1.4450    -6.6110 c3         1 04A       0.017700
     14 CAN         -0.6350     3.2120    -8.7800 c3         1 04A       0.017700
     15 CAP         -0.9630     3.3860   -10.2640 c3         1 04A      -0.077200
     16 CAQ          1.9670     0.0000     1.3050 c3         1 04A      -0.103100
     17 CAR         -1.6890    10.8680   -11.8690 c3         1 04A      -0.103100
     18 NAS         -0.5760     0.0020    -3.6700 nc         1 04A      -0.285500
     19 NAT         -0.0510     5.6010   -10.9870 nc         1 04A      -0.285500
     20 NAU         -0.1020     0.0010    -2.4990 nc         1 04A      -0.337000
     21 NAV         -0.3170     6.8130   -11.2160 nc         1 04A      -0.337000
     22 NAW          1.8870     0.0010    -1.1670 ns         1 04A      -0.532400
     23 NAX         -2.0160     8.4980   -11.2390 ns         1 04A      -0.532400
     24 SAY         -0.5460     1.4450    -8.3820 ss         1 04A      -0.351200
     25 SAZ          1.8960     0.0020    -3.9330 ss         1 04A      -0.322300
     26 SBA         -2.4760     5.8690   -10.5160 ss         1 04A      -0.322300
     27 CBB          1.2130     0.0000     0.0000 c          1 04A       0.640600
     28 CBC         -1.1760     9.4680   -11.6520 c          1 04A       0.640600
     29 CBD          0.9880    -0.0010     2.4500 ca         1 04A      -0.074800
     30 CBE         -0.5600    11.7500   -12.3280 ca         1 04A      -0.074800
     31 CBF          0.2810     0.0030    -4.6410 cd         1 04A       0.393200
     32 CBG         -1.0360     4.8560   -10.5950 cd         1 04A       0.393200
     33 CBH          1.1910     0.0010    -2.3720 cd         1 04A       0.531300
     34 CBI         -1.5420     7.2060   -11.0390 cd         1 04A       0.531300
     35 HAC         -1.5010    -0.0040     5.3850 ha         1 04A       0.130000
     36 HAE         -0.6850     2.1330     4.4620 ha         1 04A       0.131000
     37 HAF         -0.7130    -2.1380     4.4340 ha         1 04A       0.131000
     38 HAG          0.9510    12.8080   -15.1560 ha         1 04A       0.131000
     39 HAH          1.8560    13.7590   -11.0920 ha         1 04A       0.131000
     40 HAI          0.9070     2.1340     2.5790 ha         1 04A       0.128500
     41 HAJ          0.8840    -2.1360     2.5560 ha         1 04A       0.128500
     42 HAK         -0.8990    11.3610   -14.4050 ha         1 04A       0.128500
     43 HAL          0.0060    12.3110   -10.3410 ha         1 04A       0.128500
     44 HAM          0.7870     1.9560    -6.4490 h1         1 04A       0.067700
     45 HAMA        -0.9400     1.9560    -6.0670 h1         1 04A       0.067700
     46 HAN         -1.4080     3.6790    -8.1820 h1         1 04A       0.067700
     47 HANA         0.3190     3.6790    -8.5640 h1         1 04A       0.067700
     48 HAP         -1.9170     2.9190   -10.4800 hc         1 04A       0.079450
     49 HAPA        -0.1900     2.9190   -10.8620 hc         1 04A       0.079450
     50 HAQ          2.5900     0.8850     1.3620 hc         1 04A       0.067450
     51 HAQA         2.5910    -0.8840     1.3620 hc         1 04A       0.067450
     52 HAR         -2.4660    10.8550   -12.6250 hc         1 04A       0.067450
     53 HARA        -2.0950    11.2520   -10.9410 hc         1 04A       0.067450
     54 HNAW         2.8880    -0.0150    -1.1680 hn         1 04A       0.335500
     55 HNAX        -2.9810     8.7070   -11.0760 hn         1 04A       0.335500
     56 CAO         -0.0440     0.0030    -6.1130 c3         1 04A      -0.077200
     57 HAD          2.3260    14.0090   -13.4990 ha         1 04A       0.130000
     58 HAO         -0.9860    -0.5080    -6.2750 hc         1 04A       0.079450
     59 HAOA         0.7420    -0.5080    -6.6560 hc         1 04A       0.079450
@<TRIPOS>BOND
     1     1    27 2
     2    28     2 2
     3     6     3 ar
     4     3     5 ar
     5     3    35 1
     6     7     4 ar
     7     8     4 ar
     8     4    57 1
     9     5     9 ar
    10     5    36 1
    11     6    10 ar
    12     6    37 1
    13    11     7 ar
    14     7    38 1
    15    12     8 ar
    16     8    39 1
    17    29     9 ar
    18     9    40 1
    19    10    29 ar
    20    10    41 1
    21    30    11 ar
    22    11    42 1
    23    30    12 ar
    24    12    43 1
    25    56    13 1
    26    13    24 1
    27    13    44 1
    28    13    45 1
    29    24    14 1
    30    15    14 1
    31    14    46 1
    32    14    47 1
    33    56    31 1
    34    56    58 1
    35    56    59 1
    36    32    15 1
    37    15    48 1
    38    15    49 1
    39    27    16 1
    40    29    16 1
    41    16    50 1
    42    16    51 1
    43    17    30 1
    44    17    28 1
    45    17    52 1
    46    17    53 1
    47    31    18 2
    48    18    20 1
    49    21    19 1
    50    19    32 2
    51    33    20 2
    52    21    34 2
    53    27    22 1
    54    33    22 1
    55    22    54 1
    56    23    34 1
    57    23    28 1
    58    23    55 1
    59    25    31 1
    60    25    33 1
    61    34    26 1
    62    32    26 1
@<TRIPOS>SUBSTRUCTURE
     1 04A         1 TEMP              0 ****  ****    0 ROOT
