@<TRIPOS>MOLECULE
04A
   59    62     1     0     0
SMALL
bcc


@<TRIPOS>ATOM
      1 OAA         -1.6620    -0.7210     0.1440 o          1 04A      -0.588100
      2 OAB         -3.3530    -4.7160    -9.1300 o          1 04A      -0.588100
      3 CAC          4.0390    -1.2870     2.5330 ca         1 04A      -0.119000
      4 CAD         -3.6900   -10.5070   -11.2550 ca         1 04A      -0.119000
      5 CAE          3.7220     0.0280     2.1910 ca         1 04A      -0.123750
      6 CAF          3.0260    -2.2390     2.6480 ca         1 04A      -0.123750
      7 CAG         -4.4520    -9.9720   -10.2160 ca         1 04A      -0.123750
      8 CAH         -3.0480    -9.6570   -12.1550 ca         1 04A      -0.123750
      9 CAI          2.3960     0.3910     1.9630 ca         1 04A      -0.123250
     10 CAJ          1.6980    -1.8790     2.4210 ca         1 04A      -0.123250
     11 CAK         -4.5710    -8.5900   -10.0760 ca         1 04A      -0.123250
     12 CAL         -3.1650    -8.2750   -12.0180 ca         1 04A      -0.123250
     13 CAM         -0.9460    -1.3480    -6.4430 c3         1 04A      -0.028300
     14 CAN          0.9040    -3.3490    -5.7010 c3         1 04A      -0.028300
     15 CAP          1.7160    -3.6700    -6.9350 c3         1 04A      -0.096200
     16 CAQ         -0.0420    -0.1750     1.8510 c3         1 04A      -0.102600
     17 CAR         -4.0680    -6.2600   -10.8350 c3         1 04A      -0.102600
     18 NAS          0.4630     0.0440    -4.1340 nc         1 04A      -0.299500
     19 NAT          1.4950    -5.4120    -8.7360 nc         1 04A      -0.299500
     20 NAU          0.9700     0.1890    -2.9530 nc         1 04A      -0.388500
     21 NAV          0.6370    -6.0020    -9.5090 nc         1 04A      -0.388500
     22 NAW          0.3850    -0.0030    -0.5950 ns         1 04A      -0.513400
     23 NAX         -1.7240    -6.0730   -10.0370 ns         1 04A      -0.513400
     24 SAY         -0.8200    -3.0830    -6.0670 ss         1 04A      -0.223200
     25 SAZ         -1.4660    -0.5910    -2.5650 ss         1 04A      -0.055800
     26 SBA         -0.7550    -4.3500    -8.0680 ss         1 04A      -0.055800
     27 CBB         -0.5080    -0.3390     0.4170 c          1 04A       0.661600
     28 CBC         -3.0330    -5.6240    -9.9200 c          1 04A       0.661600
     29 CBD          1.3750    -0.5620     2.0740 ca         1 04A      -0.106300
     30 CBE         -3.9260    -7.7330   -10.9750 ca         1 04A      -0.106300
     31 CBF         -0.8310    -0.3680    -4.1340 cd         1 04A       0.273700
     32 CBG          0.9550    -4.4990    -7.8980 cd         1 04A       0.273700
     33 CBH          0.0730    -0.1030    -1.9430 cd         1 04A       0.431800
     34 CBI         -0.6600    -5.5620    -9.3100 cd         1 04A       0.431800
     35 HAC          5.0860    -1.5720     2.7110 ha         1 04A       0.137500
     36 HAE          4.5190     0.7810     2.1020 ha         1 04A       0.137750
     37 HAF          3.2730    -3.2760     2.9200 ha         1 04A       0.137750
     38 HAG         -4.9590   -10.6400    -9.5050 ha         1 04A       0.137750
     39 HAH         -2.4470   -10.0760   -12.9760 ha         1 04A       0.137750
     40 HAI          2.1490     1.4320     1.7040 ha         1 04A       0.136750
     41 HAJ          0.9010    -2.6330     2.5170 ha         1 04A       0.136750
     42 HAK         -5.1730    -8.1710    -9.2550 ha         1 04A       0.136750
     43 HAL         -2.6620    -7.6090   -12.7350 ha         1 04A       0.136750
     44 HAM          0.0640    -0.9190    -6.6530 h1         1 04A       0.092200
     45 HAMA        -1.5540    -1.2820    -7.3820 h1         1 04A       0.092200
     46 HAN          1.3390    -2.4660    -5.1750 h1         1 04A       0.092200
     47 HANA         0.9060    -4.2190    -4.9960 h1         1 04A       0.092200
     48 HAP          2.6620    -4.1960    -6.6230 hc         1 04A       0.071450
     49 HAPA         2.0270    -2.7160    -7.4460 hc         1 04A       0.071450
     50 HAQ         -0.7230    -0.8010     2.4910 hc         1 04A       0.088450
     51 HAQA        -0.2040     0.9020     2.1340 hc         1 04A       0.088450
     52 HAR         -5.0790    -6.0060   -10.4140 hc         1 04A       0.088450
     53 HARA        -3.9820    -5.7610   -11.8390 hc         1 04A       0.088450
     54 HNAW         1.3220     0.2470    -0.3500 hn         1 04A       0.345000
     55 HNAX        -1.5410    -6.8300   -10.6620 hn         1 04A       0.345000
     56 CAO         -1.6470    -0.5760    -5.3540 c3         1 04A      -0.096200
     57 HAD         -3.5950   -11.5980   -11.3640 ha         1 04A       0.137500
     58 HAO         -1.9360     0.4340    -5.7660 hc         1 04A       0.071450
     59 HAOA        -2.5980    -1.1070    -5.0720 hc         1 04A       0.071450
@<TRIPOS>BOND
     1     1    27 2   
     2     2    28 2   
     3     3     5 ar  
     4     3     6 ar  
     5     3    35 1   
     6     4     7 ar  
     7     4     8 ar  
     8     4    57 1   
     9     5     9 ar  
    10     5    36 1   
    11     6    10 ar  
    12     6    37 1   
    13     7    11 ar  
    14     7    38 1   
    15     8    12 ar  
    16     8    39 1   
    17     9    29 ar  
    18     9    40 1   
    19    10    29 ar  
    20    10    41 1   
    21    11    30 ar  
    22    11    42 1   
    23    12    30 ar  
    24    12    43 1   
    25    13    24 1   
    26    13    44 1   
    27    13    45 1   
    28    13    56 1   
    29    14    15 1   
    30    14    24 1   
    31    14    46 1   
    32    14    47 1   
    33    15    32 1   
    34    15    48 1   
    35    15    49 1   
    36    16    27 1   
    37    16    29 1   
    38    16    50 1   
    39    16    51 1   
    40    17    28 1   
    41    17    30 1   
    42    17    52 1   
    43    17    53 1   
    44    18    20 1   
    45    18    31 2   
    46    19    21 1   
    47    19    32 2   
    48    20    33 2   
    49    21    34 2   
    50    22    27 1   
    51    22    33 1   
    52    22    54 1   
    53    23    28 1   
    54    23    34 1   
    55    23    55 1   
    56    25    31 1   
    57    25    33 1   
    58    26    32 1   
    59    26    34 1   
    60    31    56 1   
    61    56    58 1   
    62    56    59 1   
@<TRIPOS>SUBSTRUCTURE
     1 04A         1 TEMP              0 ****  ****    0 ROOT
