@<TRIPOS>MOLECULE
04D
   34    34     1     0     0
SMALL
bcc


@<TRIPOS>ATOM
      1 N5           0.0000     0.0000     0.0000 nz         1 04D       0.819000
      2 O6           3.4090     0.0170     1.4430 oh         1 04D      -0.266000
      3 O7           1.5710    -3.6720     2.1090 oh         1 04D      -0.310000
      4 C20          1.4700     0.0000     0.0000 c3         1 04D      -0.352000
      5 C21          1.9800     0.0000     1.4420 c3         1 04D       0.103000
      6 C24          1.9840     2.4860    -2.8920 c3         1 04D      -0.081000
      7 C25          2.3000     0.0090    -2.8650 c3         1 04D      -0.081000
      8 C26          1.9790     1.2490    -0.7210 DU         1 04D      -0.205000
      9 C27          2.1210    -2.4940     1.5190 c3         1 04D       0.079000
     10 C28          1.8750    -1.1900     3.6370 c3         1 04D      -0.099000
     11 C29          1.4840    -1.2580     2.1590 c3         1 04D      -0.124000
     12 HN5         -0.3480    -0.4200    -0.8390 hn         1 04D       0.035333
     13 HO6          3.7150     0.7590     1.9370 ho         1 04D       0.220000
     14 HO7          1.8390    -4.4270     1.6110 ho         1 04D       0.211000
     15 H20          1.8310    -0.8840    -0.5110 hx         1 04D       0.171000
     16 H21          1.4950     0.9300     1.7140 h1         1 04D       0.039000
     17 H23          1.3340     1.4090    -1.1680 DU         1 04D       0.261000
     18 H24          1.6870     2.4470    -3.9330 hc         1 04D       0.055333
     19 H24A         1.1350     2.7770    -2.2850 hc         1 04D       0.055333
     20 H24B         2.7800     3.2110    -2.7700 hc         1 04D       0.055333
     21 H25          1.7040    -0.8890    -2.7520 hc         1 04D       0.055333
     22 H25A         3.2520    -0.1250    -2.3660 hc         1 04D       0.055333
     23 H25B         2.4670     0.2010    -3.9180 hc         1 04D       0.055333
     24 H26          1.5410     2.1310    -0.2690 ha         1 04D       0.117500
     25 H26A         3.0580     1.2990    -0.6380 ha         1 04D       0.117500
     26 H27          1.9180    -2.4940     0.4550 h1         1 04D       0.035500
     27 H27A         3.1910    -2.4730     1.6820 h1         1 04D       0.035500
     28 H28          1.3490    -1.9620     4.1860 hc         1 04D       0.063333
     29 H28A         1.6110    -0.2190     4.0360 hc         1 04D       0.063333
     30 H28B         2.9430    -1.3420     3.7350 hc         1 04D       0.063333
     31 H29          0.4060    -1.3220     2.0730 hc         1 04D       0.052000
     32 H2          -0.2600    -0.5480     0.7960 hn         1 04D       0.035333
     33 C23          1.5830     1.1830    -2.1980 c3         1 04D      -0.370000
     34 H53         -0.3480     0.9340     0.0920 hn         1 04D       0.035333
@<TRIPOS>BOND
     1     1     4 1   
     2     1    12 1   
     3     1    32 1   
     4     1    34 1   
     5     2     5 1   
     6     2    13 1   
     7     3     9 1   
     8     3    14 1   
     9     4     5 1   
    10     4     8 1   
    11     4    15 1   
    12     5    11 1   
    13     5    16 1   
    14     6    18 1   
    15     6    19 1   
    16     6    20 1   
    17     6    33 1   
    18     7    21 1   
    19     7    22 1   
    20     7    23 1   
    21     7    33 1   
    22     8    17 1   
    23     8    24 1   
    24     8    25 1   
    25     8    33 1   
    26     9    11 1   
    27     9    26 1   
    28     9    27 1   
    29    10    11 1   
    30    10    28 1   
    31    10    29 1   
    32    10    30 1   
    33    11    31 1   
    34    17    33 1   
@<TRIPOS>SUBSTRUCTURE
     1 04D         1 TEMP              0 ****  ****    0 ROOT
