@<TRIPOS>MOLECULE
molecule
   34    33     1     0     0
SMALL
bcc


@<TRIPOS>ATOM
      1 N5           0.0000     0.0000     0.0000 nz         1 04D      -0.816600
      2 O6           3.4090     0.0170     1.4430 oh         1 04D      -0.557800
      3 O7           1.5710    -3.6720     2.1090 oh         1 04D      -0.601800
      4 C20          1.4700     0.0000     0.0000 c3         1 04D       0.038500
      5 C21          1.9800     0.0000     1.4420 c3         1 04D       0.150100
      6 C24          1.9840     2.4860    -2.8920 c3         1 04D      -0.067100
      7 C25          2.3000     0.0090    -2.8650 c3         1 04D      -0.067100
      8 C26          1.9790     1.2490    -0.7210 c3         1 04D      -0.178400
      9 C27          2.1210    -2.4940     1.5190 c3         1 04D       0.148400
     10 C28          1.8750    -1.1900     3.6370 c3         1 04D      -0.080100
     11 C29          1.4840    -1.2580     2.1590 c3         1 04D      -0.089700
     12 HN5         -0.3480    -0.4200    -0.8390 hn         1 04D       0.465133
     13 HO6          3.7150     0.7590     1.9370 ho         1 04D       0.437000
     14 HO7          1.8390    -4.4270     1.6110 ho         1 04D       0.427000
     15 H20          1.8310    -0.8840    -0.5110 hx         1 04D       0.147700
     16 H21          1.4950     0.9300     1.7140 h1         1 04D       0.037700
     17 H23          1.3340     1.4090    -1.1680 hc         1 04D       0.264700
     18 H24          1.6870     2.4470    -3.9330 hc         1 04D       0.046700
     19 H24A         1.1350     2.7770    -2.2850 hc         1 04D       0.046700
     20 H24B         2.7800     3.2110    -2.7700 hc         1 04D       0.046700
     21 H25          1.7040    -0.8890    -2.7520 hc         1 04D       0.046700
     22 H25A         3.2520    -0.1250    -2.3660 hc         1 04D       0.046700
     23 H25B         2.4670     0.2010    -3.9180 hc         1 04D       0.046700
     24 H26          1.5410     2.1310    -0.2690 hc         1 04D       0.110200
     25 H26A         3.0580     1.2990    -0.6380 hc         1 04D       0.110200
     26 H27          1.9180    -2.4940     0.4550 h1         1 04D       0.032700
     27 H27A         3.1910    -2.4730     1.6820 h1         1 04D       0.032700
     28 H28          1.3490    -1.9620     4.1860 hc         1 04D       0.060367
     29 H28A         1.6110    -0.2190     4.0360 hc         1 04D       0.060367
     30 H28B         2.9430    -1.3420     3.7350 hc         1 04D       0.060367
     31 H29          0.4060    -1.3220     2.0730 hc         1 04D       0.032700
     32 H2          -0.2600    -0.5480     0.7960 hn         1 04D       0.465133
     33 C23          1.5830     1.1830    -2.1980 c3         1 04D      -0.367700
     34 H53         -0.3480     0.9340     0.0920 hn         1 04D       0.465133
@<TRIPOS>BOND
     1     4     1 1
     2     1    12 1
     3     5     2 1
     4     2    13 1
     5     3     9 1
     6     3    14 1
     7     5     4 1
     8     8     4 1
     9     4    15 1
    10    11     5 1
    11     5    16 1
    12     8    33 1
    13    33     7 1
    14    33     6 1
    15    33    17 1
    16     6    18 1
    17     6    19 1
    18     6    20 1
    19     7    21 1
    20     7    22 1
    21     7    23 1
    22     8    24 1
    23     8    25 1
    24    11     9 1
    25     9    26 1
    26     9    27 1
    27    11    10 1
    28    10    28 1
    29    10    29 1
    30    10    30 1
    31    11    31 1
    32     1    32 1
    33    34     1 1
@<TRIPOS>SUBSTRUCTURE
     1 04D         1 TEMP              0 ****  ****    0 ROOT
