@<TRIPOS>MOLECULE
04D
   34    33     1     0     0
SMALL
bcc


@<TRIPOS>ATOM
      1 N5           0.6890    -1.3550    -0.0430 nz         1 04D      -0.841600
      2 O6           2.3550    -1.6260     2.0940 oh         1 04D      -0.640800
      3 O7           1.1180     2.5660     3.7130 oh         1 04D      -0.591800
      4 C20          1.8460    -0.4150     0.1480 c3         1 04D       0.133500
      5 C21          2.2310    -0.2770     1.6470 c3         1 04D       0.129100
      6 C24          1.0600     0.0690    -2.8330 c3         1 04D      -0.105600
      7 C25          1.8940     2.3860    -2.5030 c3         1 04D      -0.105600
      8 C26          1.6150     0.9380    -0.5190 c3         1 04D      -0.111400
      9 C27          1.5540     2.0180     2.4810 c3         1 04D       0.136400
     10 C28         -0.1560     0.2000     2.4740 c3         1 04D      -0.106100
     11 C29          1.3170     0.5090     2.5880 c3         1 04D      -0.115700
     12 C23          1.9630     0.9540    -2.0010 c3         1 04D      -0.078700
     13 HN5          0.5990    -1.5990    -1.0340 hn         1 04D       0.464467
     14 HO6          2.7230    -1.6130     2.9880 ho         1 04D       0.454000
     15 HO7          1.2930     3.5150     3.6800 ho         1 04D       0.424000
     16 H20          2.7280    -0.9280    -0.3530 hx         1 04D       0.116700
     17 H21          3.2520     0.2100     1.6500 h1         1 04D       0.083700
     18 H23          3.0250     0.5930    -2.1230 hc         1 04D       0.066700
     19 H24          1.3800    -1.0010    -2.7770 hc         1 04D       0.048200
     20 H24A        -0.0060     0.1600    -2.5130 hc         1 04D       0.048200
     21 H24B         1.1170     0.3700    -3.9100 hc         1 04D       0.048200
     22 H25          2.2180     2.4330    -3.5710 hc         1 04D       0.048200
     23 H25A         0.8510     2.7780    -2.4320 hc         1 04D       0.048200
     24 H25B         2.5660     3.0460    -1.9030 hc         1 04D       0.048200
     25 H26          0.5590     1.2900    -0.3700 hc         1 04D       0.082200
     26 H26A         2.2830     1.6810     0.0020 hc         1 04D       0.082200
     27 H27          0.9610     2.4600     1.6350 h1         1 04D       0.029200
     28 H27A         2.6440     2.2410     2.3250 h1         1 04D       0.029200
     29 H28         -0.5940     0.6140     1.5330 hc         1 04D       0.049700
     30 H28A        -0.6910     0.6900     3.3290 hc         1 04D       0.049700
     31 H28B        -0.3380    -0.9000     2.5350 hc         1 04D       0.049700
     32 H29          1.6320     0.2160     3.6390 hc         1 04D       0.100700
     33 H2          -0.1810    -0.9170     0.2770 hn         1 04D       0.464467
     34 H53          0.8600    -2.2020     0.5160 hn         1 04D       0.464467
@<TRIPOS>BOND
     1     1     4 1   
     2     1    13 1   
     3     1    33 1   
     4     1    34 1   
     5     2     5 1   
     6     2    14 1   
     7     3     9 1   
     8     3    15 1   
     9     4     5 1   
    10     4     8 1   
    11     4    16 1   
    12     5    11 1   
    13     5    17 1   
    14     6    12 1   
    15     6    19 1   
    16     6    20 1   
    17     6    21 1   
    18     7    12 1   
    19     7    22 1   
    20     7    23 1   
    21     7    24 1   
    22     8    12 1   
    23     8    25 1   
    24     8    26 1   
    25     9    11 1   
    26     9    27 1   
    27     9    28 1   
    28    10    11 1   
    29    10    29 1   
    30    10    30 1   
    31    10    31 1   
    32    11    32 1   
    33    12    18 1   
@<TRIPOS>SUBSTRUCTURE
     1 04D         1 TEMP              0 ****  ****    0 ROOT
