@<TRIPOS>MOLECULE
04E
    7     6     1     0     0
SMALL
bcc


@<TRIPOS>ATOM
      1 C1           0.0000     0.0000     0.0000 c          1 04E       0.950600
      2 O1           1.2080     0.0000     0.0000 o          1 04E      -0.866300
      3 CH3         -0.7540     0.0000     1.3050 c3         1 04E       0.353500
      4 H1          -1.3770     0.8850     1.3630 h1         1 04E       0.008700
      5 H2          -1.3770    -0.8850     1.3630 h1         1 04E       0.008700
      6 I1           0.6510     0.0000     2.9480 i          1 04E      -0.589900
      7 OXT         -0.6710     0.0050    -1.1630 o          1 04E      -0.866300
@<TRIPOS>BOND
     1     1     2 1   
     2     1     3 1   
     3     1     7 1   
     4     3     4 1   
     5     3     5 1   
     6     3     6 1   
@<TRIPOS>SUBSTRUCTURE
     1 04E         1 TEMP              0 ****  ****    0 ROOT
