@<TRIPOS>MOLECULE
04G
   23    25     1     0     0
SMALL
bcc


@<TRIPOS>ATOM
      1 O4           0.0000     0.0000     0.0000 oh         1 04G      -0.497100
      2 O5           4.7420     0.0000     0.0000 os         1 04G      -0.325800
      3 N6           4.7040    -0.0010     2.7870 nc         1 04G      -0.468000
      4 O6           9.3680     0.0000     0.2000 o          1 04G      -0.572100
      5 C21          2.3270    -0.0010     2.7790 ca         1 04G      -0.058300
      6 C22          1.1620    -0.0000     2.0790 ca         1 04G      -0.172000
      7 C23          1.1720     0.0000     0.6810 ca         1 04G       0.195100
      8 C24          2.3710     0.0000    -0.0140 ca         1 04G      -0.246300
      9 C25          3.5720     0.0000     0.6790 ca         1 04G       0.299700
     10 C26          3.5620    -0.0000     2.0940 ca         1 04G       0.161300
     11 C27          5.8650    -0.0000     2.1580 cd         1 04G       0.281800
     12 C28          5.9020    -0.0010     0.6890 cd         1 04G       0.217400
     13 C29          7.1070    -0.0000     0.0520 cc         1 04G      -0.274200
     14 C30          8.2980    -0.0000     0.7910 c          1 04G       0.612500
     15 C31          8.2900    -0.0010     2.2070 cc         1 04G      -0.192200
     16 C32          7.1270     0.0000     2.8960 cd         1 04G      -0.143800
     17 HO4         -0.2470     0.8880    -0.2000 ho         1 04G       0.414000
     18 H21          2.3080    -0.0010     3.8620 ha         1 04G       0.121000
     19 H22          0.2180     0.0000     2.6090 ha         1 04G       0.124000
     20 H24          2.3700    -0.0500    -1.0960 ha         1 04G       0.136000
     21 H29          7.1450     0.0010    -1.0310 ha         1 04G       0.142000
     22 H31          9.2300    -0.0010     2.7450 ha         1 04G       0.127000
     23 H32          7.1310     0.0000     3.9800 ha         1 04G       0.120000
@<TRIPOS>BOND
     1     1     7 1   
     2     1    17 1   
     3     2     9 1   
     4     2    12 1   
     5     3    10 1   
     6     3    11 2   
     7     4    14 2   
     8     5     6 ar  
     9     5    10 ar  
    10     5    18 1   
    11     6     7 ar  
    12     6    19 1   
    13     7     8 ar  
    14     8     9 ar  
    15     8    20 1   
    16     9    10 ar  
    17    11    12 1   
    18    11    16 1   
    19    12    13 2   
    20    13    14 1   
    21    13    21 1   
    22    14    15 1   
    23    15    16 2   
    24    15    22 1   
    25    16    23 1   
@<TRIPOS>SUBSTRUCTURE
     1 04G         1 TEMP              0 ****  ****    0 ROOT
