@<TRIPOS>MOLECULE
04G
   23    25     1     0     0
SMALL
bcc


@<TRIPOS>ATOM
      1 O4           0.1170    -0.0090    -0.1610 oh         1 04G      -0.484100
      2 O5           4.8220     0.0810    -0.0230 os         1 04G      -0.380800
      3 N6           4.8070     0.0020     2.8640 nc         1 04G      -0.573000
      4 O6           9.5270     0.1690     0.1160 o          1 04G      -0.520100
      5 C21          2.3650    -0.0430     2.7640 ca         1 04G      -0.075300
      6 C22          1.1940    -0.0460     2.0240 ca         1 04G      -0.241000
      7 C23          1.2460    -0.0070     0.6170 ca         1 04G       0.176100
      8 C24          2.4670     0.0350    -0.0680 ca         1 04G      -0.245300
      9 C25          3.6380     0.0380     0.6960 ca         1 04G       0.293700
     10 C26          3.6220    -0.0010     2.1160 ca         1 04G       0.192300
     11 C27          5.9310     0.0430     2.1940 cd         1 04G       0.353800
     12 C28          6.0010     0.0840     0.7180 cd         1 04G       0.195400
     13 C29          7.1590     0.1250     0.0210 cc         1 04G      -0.266200
     14 C30          8.4470     0.1320     0.7220 c          1 04G       0.564500
     15 C31          8.3850     0.0910     2.1970 cc         1 04G      -0.212200
     16 C32          7.2310     0.0500     2.8780 cd         1 04G      -0.179800
     17 HO4         -0.6550    -0.0400     0.4260 ho         1 04G       0.429000
     18 H21          2.3220    -0.0740     3.8650 ha         1 04G       0.159000
     19 H22          0.2210    -0.0790     2.5340 ha         1 04G       0.145000
     20 H24          2.5040     0.0660    -1.1650 ha         1 04G       0.178000
     21 H29          7.1780     0.1550    -1.0780 ha         1 04G       0.173000
     22 H31          9.3590     0.0960     2.7140 ha         1 04G       0.160000
     23 H32          7.2120     0.0200     3.9810 ha         1 04G       0.159000
@<TRIPOS>BOND
     1     1     7 1   
     2     1    17 1   
     3     2     9 1   
     4     2    12 1   
     5     3    10 1   
     6     3    11 2   
     7     4    14 2   
     8     5     6 ar  
     9     5    10 ar  
    10     5    18 1   
    11     6     7 ar  
    12     6    19 1   
    13     7     8 ar  
    14     8     9 ar  
    15     8    20 1   
    16     9    10 ar  
    17    11    12 1   
    18    11    16 1   
    19    12    13 2   
    20    13    14 1   
    21    13    21 1   
    22    14    15 1   
    23    15    16 2   
    24    15    22 1   
    25    16    23 1   
@<TRIPOS>SUBSTRUCTURE
     1 04G         1 TEMP              0 ****  ****    0 ROOT
