@<TRIPOS>MOLECULE
04H
   29    29     1     0     0
SMALL
bcc


@<TRIPOS>ATOM
      1 N19          0.0000     0.0000     0.0000 nz         1 04H       0.080400
      2 C23          1.4690     0.0000     0.0000 c3         1 04H      -0.041200
      3 C26          1.9790     0.0000     1.4420 c3         1 04H      -0.089700
      4 C28          1.5740    -1.3090     2.1280 c3         1 04H       0.175800
      5 C29          3.5050     0.1210     1.4450 c3         1 04H      -0.012400
      6 N30          2.1810    -1.3490     3.4660 nh         1 04H      -0.471600
      7 C31          4.0140     0.1540     2.8880 c3         1 04H      -0.029400
      8 C32          3.6310    -1.1520     3.5900 c3         1 04H       0.167800
      9 C33          1.4060    -1.5660     4.5810 c2         1 04H       0.283100
     10 N34          1.9980    -1.7140     5.8120 nz         1 04H       0.186400
     11 N35          0.1090    -1.6320     4.4700 n2         1 04H      -0.601100
     12 H19         -0.3340    -0.9310     0.1560 hn         1 04H       0.230133
     13 H231         1.8310     0.8850    -0.5110 hx         1 04H       0.099700
     14 H232         1.8310    -0.8840    -0.5110 hx         1 04H       0.099700
     15 H26          1.5510     0.8360     1.9820 hc         1 04H       0.054700
     16 H281         0.4950    -1.3520     2.2180 h1         1 04H       0.033200
     17 H282         1.9290    -2.1490     1.5440 h1         1 04H       0.033200
     18 H291         3.7940     1.0350     0.9400 hc         1 04H       0.049700
     19 H292         3.9340    -0.7310     0.9320 hc         1 04H       0.049700
     20 H311         5.0920     0.2610     2.8880 hc         1 04H       0.051200
     21 H312         3.5630     0.9890     3.4100 hc         1 04H       0.051200
     22 H321         4.1510    -1.9800     3.1220 h1         1 04H       0.033700
     23 H322         3.9010    -1.0930     4.6370 h1         1 04H       0.033700
     24 H341         2.4060    -0.8440     6.0930 hn         1 04H       0.235800
     25 H342         2.7110    -2.4140     5.7580 hn         1 04H       0.235800
     26 H35         -0.3240    -1.5250     3.5740 hn         1 04H       0.363400
     27 H2          -0.3340     0.3300    -0.8840 hn         1 04H       0.230133
     28 H193        -0.3340     0.6000     0.7280 hn         1 04H       0.230133
     29 H343         1.3170    -2.0280     6.4740 hn         1 04H       0.235800
@<TRIPOS>BOND
     1     1     2 1
     2     1    12 1
     3     1    27 1
     4     1    28 1
     5     2     3 1
     6     2    13 1
     7     2    14 1
     8     3     4 1
     9     3     5 1
    10     3    15 1
    11     4     6 1
    12     4    16 1
    13     4    17 1
    14     5     7 1
    15     5    18 1
    16     5    19 1
    17     6     8 1
    18     6     9 1
    19     7     8 1
    20     7    20 1
    21     7    21 1
    22     8    22 1
    23     8    23 1
    24     9    10 1
    25     9    11 2
    26    10    24 1
    27    10    25 1
    28    10    29 1
    29    11    26 1
@<TRIPOS>SUBSTRUCTURE
     1 04H         1 TEMP              0 ****  ****    0 ROOT
