@<TRIPOS>MOLECULE
04H
   29    29     1     0     0
SMALL
bcc


@<TRIPOS>ATOM
      1 N19         -0.0770    -0.2510     0.0080 nz         1 04H      -0.839600
      2 C23          1.2960     0.3210     0.1200 c3         1 04H       0.106800
      3 C26          1.9560     0.1750     1.4870 c3         1 04H      -0.134700
      4 C28          1.4190     1.2000     2.5010 c3         1 04H       0.177800
      5 C29          1.8670    -1.2290     2.0630 c3         1 04H      -0.093400
      6 N30          1.9980     1.1170     3.8370 nh         1 04H      -0.689600
      7 C31          2.6130    -1.2930     3.3810 c3         1 04H      -0.109400
      8 C32          2.0790    -0.2490     4.3580 c3         1 04H       0.155800
      9 C33          3.2080     1.8830     4.0230 c2         1 04H       0.704100
     10 N34          3.1640     2.5920     5.3940 nz         1 04H      -0.872600
     11 N35          4.1710     2.0080     3.1960 n2         1 04H      -0.708100
     12 H19         -0.4410    -0.0950    -0.9410 hn         1 04H       0.468800
     13 H231         1.2320     1.4150    -0.1580 hx         1 04H       0.123700
     14 H232         1.9360    -0.2070    -0.6500 hx         1 04H       0.123700
     15 H26          3.0500     0.4040     1.2980 hc         1 04H       0.126700
     16 H281         0.3150     1.0250     2.6620 h1         1 04H       0.076200
     17 H282         1.5570     2.2400     2.0920 h1         1 04H       0.076200
     18 H291         2.3130    -1.9680     1.3470 hc         1 04H       0.061700
     19 H292         0.7980    -1.5190     2.2450 hc         1 04H       0.061700
     20 H311         2.4820    -2.3090     3.8420 hc         1 04H       0.091200
     21 H312         3.7110    -1.1430     3.2070 hc         1 04H       0.091200
     22 H321         1.0190    -0.5150     4.6490 h1         1 04H       0.084700
     23 H322         2.7070    -0.2640     5.2920 h1         1 04H       0.084700
     24 H341         3.0960     1.8940     6.1430 hn         1 04H       0.471467
     25 H342         4.0010     3.1620     5.5460 hn         1 04H       0.471467
     26 H35          4.9590     2.6020     3.3500 hn         1 04H       0.480400
     27 H2          -0.7100     0.1900     0.6830 hn         1 04H       0.468800
     28 H193        -0.0550    -1.2620     0.1920 hn         1 04H       0.468800
     29 H343         2.3340     3.1960     5.4390 hn         1 04H       0.471467
@<TRIPOS>BOND
     1     1     2 1   
     2     1    12 1   
     3     1    27 1   
     4     1    28 1   
     5     2     3 1   
     6     2    13 1   
     7     2    14 1   
     8     3     4 1   
     9     3     5 1   
    10     3    15 1   
    11     4     6 1   
    12     4    16 1   
    13     4    17 1   
    14     5     7 1   
    15     5    18 1   
    16     5    19 1   
    17     6     8 1   
    18     6     9 1   
    19     7     8 1   
    20     7    20 1   
    21     7    21 1   
    22     8    22 1   
    23     8    23 1   
    24     9    10 1   
    25     9    11 2   
    26    10    24 1   
    27    10    25 1   
    28    10    29 1   
    29    11    26 1   
@<TRIPOS>SUBSTRUCTURE
     1 04H         1 TEMP              0 ****  ****    0 ROOT
