@<TRIPOS>MOLECULE
04J
   51    53     1     0     0
SMALL
bcc


@<TRIPOS>ATOM
      1 C           -0.5380     0.2340    -0.3970 c          1 04J       0.665700
      2 N            0.6440    -0.4440    -0.2490 ns         1 04J      -0.542900
      3 O           -1.3050     0.4790     0.5610 o          1 04J      -0.639100
      4 N1          -0.4780    -4.6230    -8.0440 nb         1 04J      -0.796000
      5 O1           3.4240    -0.2220     1.7640 o          1 04J      -0.816800
      6 C2          -0.1080    -5.4360    -6.9950 ca         1 04J       0.931900
      7 O2           3.2710    -1.5560    -0.0360 o          1 04J      -0.816800
      8 N3           0.0890    -5.0590    -5.6740 nb         1 04J      -0.850000
      9 C4          -0.0310    -3.7360    -5.3660 ca         1 04J       0.717900
     10 N5          -0.5650    -1.4380    -6.1230 nb         1 04J      -0.571000
     11 C6          -0.9120    -0.6260    -7.1220 ca         1 04J       0.183300
     12 C7          -1.1120    -1.1420    -8.4550 ca         1 04J       0.340900
     13 N8          -0.9780    -2.4130    -8.7810 nb         1 04J      -0.644000
     14 C9          -1.0830     0.8590    -6.8830 c3         1 04J       0.145500
     15 CA           1.2060    -0.8590     1.0130 c3         1 04J      -0.049300
     16 CB           0.7930    -2.2700     1.4800 c3         1 04J      -0.092400
     17 CD           0.0460    -3.3880    -0.6940 c          1 04J       0.643100
     18 CG          -0.3020    -2.9460     0.6940 c3         1 04J      -0.159400
     19 CT           2.7790    -0.8690     0.9090 c          1 04J       0.910600
     20 N10         -1.9980     1.2460    -5.8380 nu         1 04J      -0.705600
     21 C11         -0.9080     0.5960    -1.8000 ca         1 04J      -0.163600
     22 C12         -2.2210     0.3740    -2.2250 ca         1 04J      -0.070000
     23 C13         -2.5750     0.5770    -3.5530 ca         1 04J      -0.178500
     24 C14         -1.6180     1.0280    -4.4930 ca         1 04J       0.140600
     25 C15         -0.3160     1.3220    -4.0330 ca         1 04J      -0.178500
     26 C16          0.0300     1.1010    -2.7040 ca         1 04J      -0.070000
     27 C4A         -0.4100    -2.7620    -6.4140 ca         1 04J       0.033000
     28 C8A         -0.6160    -3.2930    -7.7520 ca         1 04J       0.626000
     29 OE1         -0.7550    -3.9580    -1.4560 o          1 04J      -0.590000
     30 OE2          1.2570    -3.2160    -1.2740 oh         1 04J      -0.625100
     31 NA4          0.2230    -3.3240    -4.1010 nv         1 04J      -0.895500
     32 NA2          0.1390    -6.7800    -7.2940 nv         1 04J      -0.931500
     33 HN           1.9090    -2.7730    -0.6810 ho         1 04J       0.504000
     34 H7          -1.3930    -0.4550    -9.2740 h4         1 04J       0.022100
     35 H9          -1.4720     1.3210    -7.8370 h1         1 04J       0.063200
     36 H9A         -0.0690     1.3030    -6.6710 h1         1 04J       0.063200
     37 HA           0.8930    -0.1170     1.8020 h1         1 04J       0.076700
     38 HB           1.7050    -2.9290     1.4790 hc         1 04J       0.052700
     39 HBA          0.4510    -2.1860     2.5450 hc         1 04J       0.052700
     40 HG          -1.1920    -2.2620     0.6130 hc         1 04J       0.076200
     41 HGA         -0.6400    -3.8650     1.2480 hc         1 04J       0.076200
     42 HN10        -2.9190     0.8880    -6.0130 hn         1 04J       0.380800
     43 H12         -2.9690     0.0200    -1.4970 ha         1 04J       0.148500
     44 H13         -3.6090     0.3720    -3.8680 ha         1 04J       0.129500
     45 H15          0.4470     1.7140    -4.7210 ha         1 04J       0.129500
     46 H16          1.0570     1.3270    -2.3730 ha         1 04J       0.148500
     47 HNA2         0.1630    -7.4120    -6.5280 hn         1 04J       0.425300
     48 HNAA        -0.2400    -7.1250    -8.1450 hn         1 04J       0.425300
     49 HNA4         0.3840    -3.9730    -3.3540 hn         1 04J       0.473300
     50 HNAB         0.0650    -2.3780    -3.8450 hn         1 04J       0.473300
     51 H2           1.2350    -0.5790    -1.0420 hn         1 04J       0.325500
@<TRIPOS>BOND
     1     1     2 1   
     2     1     3 2   
     3     1    21 1   
     4     2    15 1   
     5     2    51 1   
     6     4     6 ar  
     7     4    28 ar  
     8     5    19 1   
     9     6     8 ar  
    10     6    32 1   
    11     7    19 1   
    12     8     9 ar  
    13     9    27 ar  
    14     9    31 1   
    15    10    11 ar  
    16    10    27 ar  
    17    11    12 ar  
    18    11    14 1   
    19    12    13 ar  
    20    12    34 1   
    21    13    28 ar  
    22    14    20 1   
    23    14    35 1   
    24    14    36 1   
    25    15    16 1   
    26    15    19 1   
    27    15    37 1   
    28    16    18 1   
    29    16    38 1   
    30    16    39 1   
    31    17    18 1   
    32    17    29 2   
    33    17    30 1   
    34    18    40 1   
    35    18    41 1   
    36    20    24 1   
    37    20    42 1   
    38    21    22 ar  
    39    21    26 ar  
    40    22    23 ar  
    41    22    43 1   
    42    23    24 ar  
    43    23    44 1   
    44    24    25 ar  
    45    25    26 ar  
    46    25    45 1   
    47    26    46 1   
    48    27    28 ar  
    49    30    33 1   
    50    31    49 1   
    51    31    50 1   
    52    32    47 1   
    53    32    48 1   
@<TRIPOS>SUBSTRUCTURE
     1 04J         1 TEMP              0 ****  ****    0 ROOT
