@<TRIPOS>MOLECULE
molecule
   50    52     1     0     0
SMALL
bcc


@<TRIPOS>ATOM
      1 C            0.0000     0.0000     0.0000 c          1 04J       0.665700
      2 N            1.3480     0.0000     0.0000 ns         1 04J      -0.515900
      3 O           -0.6080     0.0010     1.0530 o          1 04J      -0.641100
      4 N1          -5.6740     0.1040   -10.3610 nb         1 04J      -0.840000
      5 O1           1.7630     2.3310     1.1250 o          1 04J      -0.860300
      6 C2          -6.1800    -1.0330   -10.7970 ca         1 04J       1.003900
      7 O2           2.8650     1.6610     2.9190 o          1 04J      -0.860300
      8 N3          -5.8750    -2.2190   -10.2780 nb         1 04J      -0.895000
      9 C4          -5.0250    -2.3290    -9.2670 ca         1 04J       0.741900
     10 N5          -3.5670    -1.1080    -7.7300 nb         1 04J      -0.606000
     11 C6          -3.0630     0.0280    -7.2970 ca         1 04J       0.241300
     12 C7          -3.4270     1.2380    -7.8880 ca         1 04J       0.373900
     13 N8          -4.2810     1.2690    -8.8880 nb         1 04J      -0.663000
     14 C9          -2.0840     0.0210    -6.1510 c3         1 04J       0.204500
     15 CA           2.0800     0.0000     1.2690 c3         1 04J      -0.002300
     16 CB           3.4670    -0.6100     1.0580 c3         1 04J      -0.059400
     17 CD           4.6890    -2.6850     0.4670 c          1 04J       0.890600
     18 CG           3.3230    -2.0840     0.6750 c3         1 04J      -0.186400
     19 CT           2.2230     1.4160     1.7660 c          1 04J       0.892600
     20 N10         -2.8170     0.0230    -4.8820 nu         1 04J      -0.836600
     21 C11         -0.7370     0.0060    -1.2780 ca         1 04J      -0.151600
     22 C12         -2.1350     0.0120    -1.2790 ca         1 04J      -0.047500
     23 C13         -2.8200     0.0180    -2.4730 ca         1 04J      -0.224000
     24 C14         -2.1220     0.0170    -3.6780 ca         1 04J       0.185600
     25 C15         -0.7300     0.0100    -3.6790 ca         1 04J      -0.224000
     26 C16         -0.0390     0.0110    -2.4890 ca         1 04J      -0.047500
     27 C4A         -4.4300    -1.0990    -8.7400 ca         1 04J       0.041000
     28 C8A         -4.8030     0.1270    -9.3440 ca         1 04J       0.664000
     29 OE1          5.6770    -2.0040     0.6100 o          1 04J      -0.874300
     30 OE2          4.8090    -3.9770     0.1210 o          1 04J      -0.874300
     31 HN           1.8480     0.0500    -0.8650 hn         1 04J       0.299500
     32 H7          -3.0020     2.1630    -7.5180 h4         1 04J       0.043100
     33 H9          -1.4650    -0.8660    -6.2100 h1         1 04J       0.054700
     34 H9A         -1.4570     0.9030    -6.2070 h1         1 04J       0.054700
     35 HA           1.5350    -0.5850     2.0000 h1         1 04J       0.068700
     36 HB           3.9780    -0.0790     0.2640 hc         1 04J       0.060200
     37 HBA          4.0400    -0.5300     1.9740 hc         1 04J       0.060200
     38 HG           2.7500    -2.1650    -0.2410 hc         1 04J       0.021700
     39 HGA          2.8120    -2.6160     1.4680 hc         1 04J       0.021700
     40 HN10        -3.8180     0.0060    -4.8830 hn         1 04J       0.431800
     41 H12         -2.6780     0.0130    -0.3420 ha         1 04J       0.150000
     42 H13         -3.9040     0.0220    -2.4760 ha         1 04J       0.113500
     43 H15         -0.1890     0.0140    -4.6180 ha         1 04J       0.113500
     44 H16          1.0440     0.0060    -2.4900 ha         1 04J       0.150000
     45 HNA2        -7.4740    -1.8370   -12.2010 hn         1 04J       0.448300
     46 HNAA        -7.3220    -0.1110   -12.2590 hn         1 04J       0.448300
     47 HNA4        -4.0670    -3.6220    -7.9680 hn         1 04J       0.457800
     48 HNAB        -5.1280    -4.3880    -9.1040 hn         1 04J       0.457800
     49 NA2         -7.0740    -0.9900   -11.8490 nv         1 04J      -0.987500
     50 NA4         -4.7110    -3.5590    -8.7300 nv         1 04J      -0.962500
@<TRIPOS>BOND
     1     2     1 1   
     2    21     1 1   
     3     1     3 2   
     4     2    15 1   
     5     2    31 1   
     6     6     4 ar  
     7     4    28 ar  
     8     5    19 1   
     9    49     6 1   
    10     6     8 ar  
    11    19     7 1   
    12     8     9 ar  
    13     9    50 1   
    14     9    27 ar  
    15    27    10 ar  
    16    10    11 ar  
    17    12    11 ar  
    18    11    14 1   
    19    13    12 ar  
    20    12    32 1   
    21    28    13 ar  
    22    14    20 1   
    23    14    33 1   
    24    14    34 1   
    25    16    15 1   
    26    15    19 1   
    27    15    35 1   
    28    16    18 1   
    29    16    36 1   
    30    16    37 1   
    31    29    17 1   
    32    17    18 1   
    33    17    30 1   
    34    18    38 1   
    35    18    39 1   
    36    20    24 1   
    37    20    40 1   
    38    26    21 ar  
    39    22    21 ar  
    40    23    22 ar  
    41    22    41 1   
    42    24    23 ar  
    43    23    42 1   
    44    24    25 ar  
    45    25    26 ar  
    46    25    43 1   
    47    26    44 1   
    48    28    27 ar  
    49    49    45 1   
    50    49    46 1   
    51    50    47 1   
    52    50    48 1   
@<TRIPOS>SUBSTRUCTURE
     1 04J         1 TEMP              0 ****  ****    0 ROOT
