@<TRIPOS>MOLECULE
04K
   64    67     1     0     0
SMALL
bcc


@<TRIPOS>ATOM
      1 N1          -0.4080     0.3730    -0.3990 nb         1 04K      -0.749000
      2 C2           0.9010    -0.1320    -0.3490 ca         1 04K       0.912900
      3 N3           1.6090    -0.3970     0.7950 nb         1 04K      -0.800000
      4 C4          -0.9780     0.6310     0.7720 ca         1 04K       0.520200
      5 C5          -0.3470     0.4180     2.0220 ca         1 04K      -0.394400
      6 C6           0.9860    -0.1170     1.9920 ca         1 04K       0.613200
      7 N7           1.6660    -0.3570     3.1870 n          1 04K      -0.426300
      8 C8           1.0560    -0.0940     4.4440 c          1 04K       0.695700
      9 C9          -0.3160     0.4530     4.4250 cc         1 04K      -0.019100
     10 C10         -0.9840     0.7010     3.2700 cd         1 04K      -0.018200
     11 O11         -0.9600     0.5580     5.6480 os         1 04K      -0.226200
     12 C12         -0.6010     1.6580     6.4330 ca         1 04K       0.091100
     13 N13          1.5110    -0.3370    -1.6030 nu         1 04K      -0.719300
     14 C14          2.7110    -1.0480    -1.7820 ca         1 04K       0.161600
     15 C15          2.7740    -2.0600    -2.7700 ca         1 04K      -0.119000
     16 C16          3.9610    -2.7330    -3.0270 ca         1 04K      -0.131500
     17 C17          5.1080    -2.3950    -2.2980 ca         1 04K       0.047100
     18 C18          5.0740    -1.3970    -1.3200 ca         1 04K      -0.131500
     19 C19          3.8850    -0.7230    -1.0650 ca         1 04K      -0.119000
     20 O20          6.2880    -3.0450    -2.6640 os         1 04K      -0.364900
     21 C21          7.0760    -3.5390    -1.5870 c3         1 04K       0.107400
     22 C22          8.3830    -2.7340    -1.5170 c3         1 04K       0.079800
     23 N23          9.0670    -2.6210    -2.8460 nx         1 04K      -0.688400
     24 C24         10.0020    -1.4460    -2.8450 c3         1 04K       0.113800
     25 C25         10.6230    -1.1550    -4.1940 c3         1 04K      -0.133100
     26 C26          9.7650    -3.9000    -3.2190 c3         1 04K       0.113800
     27 C27          9.5440    -4.2990    -4.6640 c3         1 04K      -0.133100
     28 O28          1.6940    -0.3310     5.4810 o          1 04K      -0.583500
     29 C29          2.9970    -0.9180     3.1560 c3         1 04K       0.071300
     30 C30         -0.7290     1.4720     7.8180 ca         1 04K      -0.128000
     31 C31         -0.4820     2.5410     8.6690 ca         1 04K      -0.141000
     32 C32         -0.0960     3.7870     8.1360 ca         1 04K       0.110900
     33 C33          0.0360     3.9580     6.7450 ca         1 04K      -0.141000
     34 C34         -0.2200     2.8890     5.8930 ca         1 04K      -0.128000
     35 F35          0.1510     4.8270     8.9680 f          1 04K      -0.135900
     36 H4          -2.0110     1.0320     0.7320 h4         1 04K       0.045100
     37 H10         -2.0110     1.0990     3.2730 ha         1 04K       0.167000
     38 HN13         0.8830    -0.3560    -2.3820 hn         1 04K       0.459800
     39 H15          1.8750    -2.3310    -3.3500 ha         1 04K       0.161500
     40 H16          4.0060    -3.5210    -3.7930 ha         1 04K       0.140500
     41 H18          5.9780    -1.1400    -0.7500 ha         1 04K       0.140500
     42 H19          3.8760     0.0700    -0.2990 ha         1 04K       0.161500
     43 H21          7.2740    -4.6190    -1.8280 h1         1 04K       0.092200
     44 H21A         6.5570    -3.4610    -0.5960 h1         1 04K       0.092200
     45 H22          9.0870    -3.2180    -0.7850 hx         1 04K       0.104200
     46 H22A         8.1460    -1.6900    -1.1610 hx         1 04K       0.104200
     47 H24         10.8050    -1.6500    -2.0810 hx         1 04K       0.098700
     48 H24A         9.4080    -0.5460    -2.5090 hx         1 04K       0.098700
     49 H25         11.2240    -0.2140    -4.1000 hc         1 04K       0.078033
     50 H25A         9.8480    -0.9960    -4.9830 hc         1 04K       0.078033
     51 H25B        11.3090    -1.9750    -4.5190 hc         1 04K       0.078033
     52 H26         10.8660    -3.7720    -3.0140 hx         1 04K       0.098700
     53 H26A         9.3770    -4.7210    -2.5490 hx         1 04K       0.098700
     54 H27          8.4620    -4.4810    -4.8790 hc         1 04K       0.078033
     55 H27A        10.1020    -5.2520    -4.8490 hc         1 04K       0.078033
     56 H27B         9.9280    -3.5250    -5.3720 hc         1 04K       0.078033
     57 H29          3.3830    -1.0330     4.2050 h1         1 04K       0.061033
     58 H29A         3.6840    -0.2390     2.5840 h1         1 04K       0.061033
     59 H29B         2.9770    -1.9250     2.6590 h1         1 04K       0.061033
     60 H30         -1.0250     0.4880     8.2130 ha         1 04K       0.151000
     61 H31         -0.5790     2.4220     9.7580 ha         1 04K       0.154500
     62 H33          0.3380     4.9360     6.3430 ha         1 04K       0.154500
     63 H34         -0.1200     3.0110     4.8050 ha         1 04K       0.151000
     64 H231         8.3310    -2.4440    -3.5510 hn         1 04K       0.466800
@<TRIPOS>BOND
     1     1     2 ar  
     2     1     4 ar  
     3     2     3 ar  
     4     2    13 1   
     5     3     6 ar  
     6     4     5 ar  
     7     4    36 1   
     8     5     6 ar  
     9     5    10 1   
    10     6     7 1   
    11     7     8 1   
    12     7    29 1   
    13     8     9 1   
    14     8    28 2   
    15     9    10 2   
    16     9    11 1   
    17    10    37 1   
    18    11    12 1   
    19    12    30 ar  
    20    12    34 ar  
    21    13    14 1   
    22    13    38 1   
    23    14    15 ar  
    24    14    19 ar  
    25    15    16 ar  
    26    15    39 1   
    27    16    17 ar  
    28    16    40 1   
    29    17    18 ar  
    30    17    20 1   
    31    18    19 ar  
    32    18    41 1   
    33    19    42 1   
    34    20    21 1   
    35    21    22 1   
    36    21    43 1   
    37    21    44 1   
    38    22    23 1   
    39    22    45 1   
    40    22    46 1   
    41    23    24 1   
    42    23    26 1   
    43    23    64 1   
    44    24    25 1   
    45    24    47 1   
    46    24    48 1   
    47    25    49 1   
    48    25    50 1   
    49    25    51 1   
    50    26    27 1   
    51    26    52 1   
    52    26    53 1   
    53    27    54 1   
    54    27    55 1   
    55    27    56 1   
    56    29    57 1   
    57    29    58 1   
    58    29    59 1   
    59    30    31 ar  
    60    30    60 1   
    61    31    32 ar  
    62    31    61 1   
    63    32    33 ar  
    64    32    35 1   
    65    33    34 ar  
    66    33    62 1   
    67    34    63 1   
@<TRIPOS>SUBSTRUCTURE
     1 04K         1 TEMP              0 ****  ****    0 ROOT
