@<TRIPOS>MOLECULE
04K
   63    66     1     0     0
SMALL
bcc


@<TRIPOS>ATOM
      1 N1           0.0000     0.0000     0.0000 nb         1 04K      -0.709000
      2 C2           1.3280     0.0000     0.0000 ca         1 04K       0.739900
      3 N3           2.0390     0.0000     1.1180 nb         1 04K      -0.740000
      4 C4          -0.6850     0.0000     1.1300 ca         1 04K       0.551200
      5 C5           0.0220    -0.0010     2.3370 ca         1 04K      -0.435400
      6 C6           1.4330     0.0000     2.2990 ca         1 04K       0.451200
      7 N7           2.1440    -0.0000     3.4720 n          1 04K       0.010700
      8 C8           1.5170    -0.0020     4.6620 c          1 04K       0.589700
      9 C9           0.1040    -0.0020     4.7580 cc         1 04K      -0.036100
     10 C10         -0.6570    -0.0010     3.6300 cd         1 04K       0.011800
     11 O11         -0.4920    -0.0040     5.9810 os         1 04K      -0.188200
     12 C12         -0.3630    -1.1160     6.7520 ca         1 04K       0.142100
     13 N13          1.9940    -0.0010    -1.2120 nu         1 04K      -0.259300
     14 C14          1.2730    -0.1210    -2.4060 ca         1 04K      -0.064400
     15 C15          1.6640     0.5970    -3.5280 ca         1 04K      -0.063000
     16 C16          0.9540     0.4770    -4.7060 ca         1 04K      -0.163500
     17 C17         -0.1510    -0.3580    -4.7690 ca         1 04K       0.150100
     18 C18         -0.5440    -1.0740    -3.6470 ca         1 04K      -0.163500
     19 C19          0.1690    -0.9610    -2.4710 ca         1 04K      -0.063000
     20 O20         -0.8510    -0.4750    -5.9290 os         1 04K      -0.285900
     21 C21         -1.9790    -1.3530    -5.9210 c3         1 04K       0.193400
     22 C22         -2.6350    -1.3530    -7.3030 c3         1 04K       0.143800
     23 N23         -1.7040    -1.9230    -8.2860 n3         1 04K      -0.531600
     24 C24         -1.4590    -3.3480    -8.0150 c3         1 04K       0.142300
     25 C25         -0.2010    -3.7990    -8.7600 c3         1 04K      -0.000100
     26 C26         -2.1990    -1.7260    -9.6550 c3         1 04K       0.142300
     27 C27         -1.9740    -0.2720   -10.0730 c3         1 04K      -0.000100
     28 O28          2.1810    -0.0030     5.6830 o          1 04K      -0.662500
     29 C29          3.6080    -0.0020     3.4290 c3         1 04K       0.040300
     30 C30         -0.8620    -1.1240     8.0460 ca         1 04K      -0.135000
     31 C31         -0.7310    -2.2540     8.8290 ca         1 04K      -0.092500
     32 C32         -0.1020    -3.3790     8.3220 ca         1 04K       0.064900
     33 C33          0.3960    -3.3720     7.0300 ca         1 04K      -0.092500
     34 C34          0.2620    -2.2450     6.2430 ca         1 04K      -0.135000
     35 F35          0.0260    -4.4830     9.0890 f          1 04K      -0.130900
     36 H4          -1.7680     0.0000     1.1220 h4         1 04K      -0.012900
     37 H10         -1.7390    -0.0010     3.6890 ha         1 04K       0.122000
     38 HN13         2.9930     0.0470    -1.2330 hn         1 04K       0.292800
     39 H15          2.5280     1.2490    -3.4800 ha         1 04K       0.115500
     40 H16          1.2610     1.0370    -5.5820 ha         1 04K       0.120000
     41 H18         -1.4060    -1.7280    -3.6970 ha         1 04K       0.120000
     42 H19         -0.1380    -1.5200    -1.5950 ha         1 04K       0.115500
     43 H21         -1.6540    -2.3570    -5.6760 h1         1 04K       0.006700
     44 H21A        -2.6950    -1.0150    -5.1820 h1         1 04K       0.006700
     45 H22         -3.5390    -1.9480    -7.2740 h1         1 04K       0.020200
     46 H22A        -2.8810    -0.3370    -7.5860 h1         1 04K       0.020200
     47 H24         -1.3210    -3.4940    -6.9510 h1         1 04K       0.009200
     48 H24A        -2.3080    -3.9310    -8.3530 h1         1 04K       0.009200
     49 H25         -0.4670    -4.1130    -9.7620 hc         1 04K       0.007533
     50 H25A         0.2540    -4.6280    -8.2310 hc         1 04K       0.007533
     51 H25B         0.5010    -2.9760    -8.8140 hc         1 04K       0.007533
     52 H26         -3.2570    -1.9540    -9.6930 h1         1 04K       0.009200
     53 H26A        -1.6640    -2.3830   -10.3300 h1         1 04K       0.009200
     54 H27         -2.8060     0.3340    -9.7340 hc         1 04K       0.007533
     55 H27A        -1.9020    -0.2140   -11.1530 hc         1 04K       0.007533
     56 H27B        -1.0560     0.0940    -9.6300 hc         1 04K       0.007533
     57 H29          3.9540    -0.9100     2.9500 h1         1 04K       0.033033
     58 H29A         4.0000     0.0470     4.4380 h1         1 04K       0.033033
     59 H29B         3.9530     0.8570     2.8660 h1         1 04K       0.033033
     60 H30         -1.3550    -0.2440     8.4430 ha         1 04K       0.118000
     61 H31         -1.1200    -2.2610     9.8400 ha         1 04K       0.116500
     62 H33          0.8860    -4.2530     6.6340 ha         1 04K       0.116500
     63 H34          0.6510    -2.2400     5.2320 ha         1 04K       0.118000
@<TRIPOS>BOND
     1     1     2 ar  
     2     1     4 ar  
     3     2     3 ar  
     4     2    13 1   
     5     3     6 ar  
     6     4     5 ar  
     7     4    36 1   
     8     5     6 ar  
     9     5    10 1   
    10     6     7 1   
    11     7     8 1   
    12     7    29 1   
    13     8     9 1   
    14     8    28 2   
    15     9    10 2   
    16     9    11 1   
    17    10    37 1   
    18    11    12 1   
    19    12    30 ar  
    20    12    34 ar  
    21    13    14 1   
    22    13    38 1   
    23    14    15 ar  
    24    14    19 ar  
    25    15    16 ar  
    26    15    39 1   
    27    16    17 ar  
    28    16    40 1   
    29    17    18 ar  
    30    17    20 1   
    31    18    19 ar  
    32    18    41 1   
    33    19    42 1   
    34    20    21 1   
    35    21    22 1   
    36    21    43 1   
    37    21    44 1   
    38    22    23 1   
    39    22    45 1   
    40    22    46 1   
    41    23    24 1   
    42    23    26 1   
    43    24    25 1   
    44    24    47 1   
    45    24    48 1   
    46    25    49 1   
    47    25    50 1   
    48    25    51 1   
    49    26    27 1   
    50    26    52 1   
    51    26    53 1   
    52    27    54 1   
    53    27    55 1   
    54    27    56 1   
    55    29    57 1   
    56    29    58 1   
    57    29    59 1   
    58    30    31 ar  
    59    30    60 1   
    60    31    32 ar  
    61    31    61 1   
    62    32    33 ar  
    63    32    35 1   
    64    33    34 ar  
    65    33    62 1   
    66    34    63 1   
@<TRIPOS>SUBSTRUCTURE
     1 04K         1 TEMP              0 ****  ****    0 ROOT
