@<TRIPOS>MOLECULE
04L
   59    65     1     0     0
SMALL
bcc


@<TRIPOS>ATOM
      1 C1           0.0000     0.0000     0.0000 c2         1 04L      -0.134000
      2 N2           1.3690     0.0000     0.0000 na         1 04L       0.327000
      3 N3          -0.4440    -0.0010     1.2330 n2         1 04L      -0.077000
      4 C4           1.7790     0.0000     1.3170 c2         1 04L      -0.226000
      5 C5           1.2400    -0.6380     6.2170 c2         1 04L       0.264000
      6 C6           0.6040    -0.0010     2.0910 c2         1 04L      -0.098000
      7 C7           1.3350    -0.5340     7.6890 ca         1 04L      -0.131000
      8 N8           2.9680     0.0010     1.9020 n2         1 04L      -0.018000
      9 C10          0.7090    -0.0010     3.4860 c2         1 04L      -0.033000
     10 C11          3.4720     1.4760    11.4120 c3         1 04L       0.345000
     11 C12          4.6420     2.0420    12.0850 c2         1 04L      -0.159000
     12 C14          1.9790    -0.0020     4.0460 c2         1 04L      -0.155000
     13 C15          4.4930     2.7130    13.2450 c2         1 04L       0.018000
     14 C16          2.4370     0.0890     8.2770 ca         1 04L      -0.118000
     15 C17         -0.8510     0.0050    -1.2100 ca         1 04L      -0.022000
     16 O18          0.3530    -1.2970     5.7110 o          1 04L      -0.398000
     17 C19          0.3210    -1.0530     8.4950 ca         1 04L      -0.013000
     18 C20          2.5190     0.1830     9.6580 ca         1 04L      -0.094000
     19 O21          2.3650     1.6100    11.9000 o          1 04L      -0.429000
     20 C22          3.0930     0.0010     3.2120 c2         1 04L      -0.081000
     21 C23          0.4120    -0.9560     9.8690 ca         1 04L      -0.096000
     22 C24          1.5060    -0.3430    10.4510 ca         1 04L      -0.070000
     23 C25          5.6690     3.2830    13.9220 c3         1 04L      -0.010000
     24 C26         -0.8740    -1.7220     7.8650 c3         1 04L      -0.076000
     25 C27         -0.2670     0.0010    -2.4780 ca         1 04L      -0.081000
     26 C28         -2.2410     0.0110    -1.0900 ca         1 04L      -0.081000
     27 C29          6.9410     3.1360    13.3620 c2         1 04L      -0.150000
     28 C30          5.5190     3.9800    15.1250 c2         1 04L      -0.150000
     29 C31         -1.0660     0.0050    -3.6020 ca         1 04L      -0.100000
     30 C32         -3.0290     0.0150    -2.2220 ca         1 04L      -0.100000
     31 C33          8.0390     3.6730    14.0020 c2         1 04L      -0.068500
     32 C34          6.6250     4.5100    15.7540 c2         1 04L      -0.068500
     33 C35         -2.4430     0.0170    -3.4750 ca         1 04L      -0.091000
     34 C36          7.8830     4.3560    15.1960 c2         1 04L      -0.131000
     35 HN9          2.8990     0.4940     5.8550 hn         1 04L       0.084000
     36 H10         -0.1510    -0.2510     4.0940 ha         1 04L       0.165000
     37 H12          3.9390     2.6160    11.4930 DU         1 04L       0.018000
     38 HN13         4.4940     0.8450     9.7630 hn         1 04L       0.086000
     39 H15          4.9860     3.6310    12.9470 DU         1 04L       0.100000
     40 H16          3.2640     0.4200     7.6610 ha         1 04L       0.101000
     41 H22          4.0840     0.0030     3.6500 h4         1 04L       0.115000
     42 H23         -0.3750    -1.3620    10.4920 ha         1 04L       0.115000
     43 H24          1.5720    -0.2690    11.5300 ha         1 04L       0.145000
     44 H26         -1.5680    -2.0240     8.6400 hc         1 04L       0.062000
     45 H26A        -1.3630    -1.0280     7.1930 hc         1 04L       0.062000
     46 H26B        -0.5490    -2.5940     7.3110 hc         1 04L       0.062000
     47 H27          0.8120    -0.0080    -2.5790 ha         1 04L       0.113000
     48 H28         -2.7010     0.0100    -0.1090 ha         1 04L       0.113000
     49 H29          7.0650     2.6020    12.4270 ha         1 04L       0.119500
     50 H30          4.5350     4.1010    15.5630 ha         1 04L       0.119500
     51 H31         -0.6140     0.0040    -4.5870 ha         1 04L       0.105500
     52 H32         -4.1080     0.0210    -2.1300 ha         1 04L       0.105500
     53 H33          9.0260     3.5580    13.5710 ha         1 04L       0.104500
     54 H34          6.5110     5.0470    16.6870 ha         1 04L       0.104500
     55 H35         -3.0660     0.0200    -4.3620 ha         1 04L       0.103000
     56 H36          8.7480     4.7750    15.6950 ha         1 04L       0.106000
     57 HN2          1.9620     0.0010    -0.8060 hn         1 04L       0.085000
     58 N9           2.1360    -0.0020     5.4380 ns         1 04L       0.120000
     59 N13          3.6210     0.8060    10.2510 nu         1 04L       0.090000
@<TRIPOS>BOND
     1     1     2 1   
     2     1     3 1   
     3     1    15 1   
     4     2     4 1   
     5     2    57 1   
     6     3     6 1   
     7     4     6 1   
     8     4     8 1   
     9     5     7 1   
    10     5    16 1   
    11     5    58 1   
    12     6     9 1   
    13     7    14 1   
    14     7    17 1   
    15     8    20 1   
    16     9    12 1   
    17     9    36 1   
    18    10    11 1   
    19    10    19 1   
    20    10    37 1   
    21    10    59 1   
    22    11    13 1   
    23    11    37 1   
    24    12    20 1   
    25    12    58 1   
    26    13    23 1   
    27    13    39 1   
    28    14    18 1   
    29    14    40 1   
    30    15    25 1   
    31    15    26 1   
    32    17    21 1   
    33    17    24 1   
    34    18    22 1   
    35    18    59 1   
    36    20    41 1   
    37    21    22 1   
    38    21    42 1   
    39    22    43 1   
    40    23    27 1   
    41    23    28 1   
    42    23    39 1   
    43    24    44 1   
    44    24    45 1   
    45    24    46 1   
    46    25    29 1   
    47    25    47 1   
    48    26    30 1   
    49    26    48 1   
    50    27    31 1   
    51    27    49 1   
    52    28    32 1   
    53    28    50 1   
    54    29    33 1   
    55    29    51 1   
    56    30    33 1   
    57    30    52 1   
    58    31    34 1   
    59    31    53 1   
    60    32    34 1   
    61    32    54 1   
    62    33    55 1   
    63    34    56 1   
    64    35    58 1   
    65    38    59 1   
@<TRIPOS>SUBSTRUCTURE
     1 04L         1 TEMP              0 ****  ****    0 ROOT
