@<TRIPOS>MOLECULE
04L
   59    63     1     0     0
SMALL
bcc


@<TRIPOS>ATOM
      1 C1           0.0000     0.0000     0.0000 cc         1 04L       0.275400
      2 N2           1.3690     0.0000     0.0000 na         1 04L       0.174000
      3 N3          -0.4440    -0.0010     1.2330 nd         1 04L      -0.503100
      4 C4           1.7790     0.0000     1.3170 ca         1 04L       0.168800
      5 C5           1.2400    -0.6380     6.2170 c          1 04L       0.585700
      6 C6           0.6040    -0.0010     2.0910 ca         1 04L      -0.029900
      7 C7           1.3350    -0.5340     7.6890 ca         1 04L      -0.150600
      8 N8           2.9680     0.0010     1.9020 nb         1 04L      -0.547000
      9 C10          0.7090    -0.0010     3.4860 ca         1 04L       0.006000
     10 C11          3.4720     1.4760    11.4120 c          1 04L       0.577300
     11 C12          4.6420     2.0420    12.0850 ce         1 04L      -0.271200
     12 C14          1.9790    -0.0020     4.0460 ca         1 04L      -0.231700
     13 C15          4.4930     2.7130    13.2450 cf         1 04L       0.034800
     14 C16          2.4370     0.0890     8.2770 ca         1 04L      -0.120000
     15 C17         -0.8510     0.0050    -1.2100 ca         1 04L      -0.104900
     16 O18          0.3530    -1.2970     5.7110 o          1 04L      -0.630100
     17 C19          0.3210    -1.0530     8.4950 ca         1 04L      -0.024300
     18 C20          2.5190     0.1830     9.6580 ca         1 04L      -0.101400
     19 O21          2.3650     1.6100    11.9000 o          1 04L      -0.642100
     20 C22          3.0930     0.0010     3.2120 ca         1 04L       0.386200
     21 C23          0.4120    -0.9560     9.8690 ca         1 04L      -0.097000
     22 C24          1.5060    -0.3430    10.4510 ca         1 04L      -0.073000
     23 C25          5.6690     3.2830    13.9220 ca         1 04L      -0.091800
     24 C26         -0.8740    -1.7220     7.8650 c3         1 04L       0.049200
     25 C27         -0.2670     0.0010    -2.4780 ca         1 04L      -0.081000
     26 C28         -2.2410     0.0110    -1.0900 ca         1 04L      -0.081000
     27 C29          6.9410     3.1360    13.3620 ca         1 04L      -0.079000
     28 C30          5.5190     3.9800    15.1250 ca         1 04L      -0.079000
     29 C31         -1.0660     0.0050    -3.6020 ca         1 04L      -0.100000
     30 C32         -3.0290     0.0150    -2.2220 ca         1 04L      -0.100000
     31 C33          8.0390     3.6730    14.0020 ca         1 04L      -0.104000
     32 C34          6.6250     4.5100    15.7540 ca         1 04L      -0.104000
     33 C35         -2.4430     0.0170    -3.4750 ca         1 04L      -0.091000
     34 C36          7.8830     4.3560    15.1960 ca         1 04L      -0.086000
     35 HN9          2.9000     0.4930     5.8550 hn         1 04L       0.170500
     36 H10         -0.1510     0.2520     4.0940 ha         1 04L       0.138000
     37 H12          5.6270     1.9220    11.6510 ha         1 04L       0.117000
     38 HN13         4.4940     0.8460     9.7620 hn         1 04L       0.164500
     39 H15          3.5080     2.8330    13.6790 ha         1 04L       0.128000
     40 H16          3.2640     0.4200     7.6610 ha         1 04L       0.101000
     41 H22          4.0840     0.0030     3.6500 h4         1 04L      -0.021900
     42 H23         -0.3750    -1.3620    10.4920 ha         1 04L       0.114000
     43 H24          1.5720    -0.2690    11.5300 ha         1 04L       0.143000
     44 H26         -1.3620    -1.0280     7.1910 hc         1 04L       0.022033
     45 H26A        -0.5500    -2.5950     7.3130 hc         1 04L       0.022033
     46 H26B        -1.5690    -2.0220     8.6400 hc         1 04L       0.022033
     47 H27          0.8120    -0.0080    -2.5790 ha         1 04L       0.113000
     48 H28         -2.7010     0.0100    -0.1090 ha         1 04L       0.113000
     49 H29          7.0650     2.6020    12.4270 ha         1 04L       0.108500
     50 H30          4.5350     4.1010    15.5630 ha         1 04L       0.108500
     51 H31         -0.6140     0.0040    -4.5870 ha         1 04L       0.105500
     52 H32         -4.1080     0.0210    -2.1300 ha         1 04L       0.105500
     53 H33          9.0260     3.5580    13.5710 ha         1 04L       0.105000
     54 H34          6.5110     5.0470    16.6870 ha         1 04L       0.105000
     55 H35         -3.0660     0.0200    -4.3620 ha         1 04L       0.103000
     56 H36          8.7480     4.7750    15.6950 ha         1 04L       0.103000
     57 HN2          1.9620     0.0010    -0.8060 hn         1 04L       0.134700
     58 N9           2.1360    -0.0020     5.4380 ns         1 04L      -0.032100
     59 N13          3.6210     0.8060    10.2510 ns         1 04L      -0.028100
@<TRIPOS>BOND
     1     1     2 1   
     2     1     3 2   
     3     1    15 1   
     4     2     4 1   
     5     2    57 1   
     6     3     6 1   
     7     4     6 ar  
     8     4     8 ar  
     9     5     7 1   
    10     5    16 2   
    11     5    58 1   
    12     6     9 ar  
    13     7    14 ar  
    14     7    17 ar  
    15     8    20 ar  
    16     9    12 ar  
    17     9    36 1   
    18    10    11 1   
    19    10    19 2   
    20    10    59 1   
    21    11    13 2   
    22    11    37 1   
    23    12    20 ar  
    24    12    58 1   
    25    13    23 1   
    26    13    39 1   
    27    14    18 ar  
    28    14    40 1   
    29    15    25 ar  
    30    15    26 ar  
    31    17    21 ar  
    32    17    24 1   
    33    18    22 ar  
    34    18    59 1   
    35    20    41 1   
    36    21    22 ar  
    37    21    42 1   
    38    22    43 1   
    39    23    27 ar  
    40    23    28 ar  
    41    24    44 1   
    42    24    45 1   
    43    24    46 1   
    44    25    29 ar  
    45    25    47 1   
    46    26    30 ar  
    47    26    48 1   
    48    27    31 ar  
    49    27    49 1   
    50    28    32 ar  
    51    28    50 1   
    52    29    33 ar  
    53    29    51 1   
    54    30    33 ar  
    55    30    52 1   
    56    31    34 ar  
    57    31    53 1   
    58    32    34 ar  
    59    32    54 1   
    60    33    55 1   
    61    34    56 1   
    62    35    58 1   
    63    38    59 1   
@<TRIPOS>SUBSTRUCTURE
     1 04L         1 TEMP              0 ****  ****    0 ROOT
