@<TRIPOS>MOLECULE
molecule
   59    63     1     0     0
SMALL
bcc


@<TRIPOS>ATOM
      1 C1           0.0000     0.0000     0.0000 cc         1 04L       0.489400
      2 N2           1.3690     0.0000     0.0000 na         1 04L      -0.360000
      3 N3          -0.4440    -0.0010     1.2330 nd         1 04L      -0.590100
      4 C4           1.7790     0.0000     1.3170 ca         1 04L       0.400800
      5 C5           1.2400    -0.6380     6.2170 c          1 04L       0.675700
      6 C6           0.6040    -0.0010     2.0910 ca         1 04L      -0.001900
      7 C7           1.3350    -0.5340     7.6890 ca         1 04L      -0.139600
      8 N8           2.9680     0.0010     1.9020 nb         1 04L      -0.686000
      9 C10          0.7090    -0.0010     3.4860 ca         1 04L      -0.031000
     10 C11          3.4720     1.4760    11.4120 c          1 04L       0.668300
     11 C12          4.6420     2.0420    12.0850 cf         1 04L      -0.266200
     12 C14          1.9790    -0.0020     4.0460 ca         1 04L      -0.089700
     13 C15          4.4930     2.7130    13.2450 ce         1 04L      -0.007200
     14 C16          2.4370     0.0890     8.2770 ca         1 04L      -0.143000
     15 C17         -0.8510     0.0050    -1.2100 ca         1 04L      -0.107900
     16 O18          0.3530    -1.2970     5.7110 o          1 04L      -0.587100
     17 C19          0.3210    -1.0530     8.4950 ca         1 04L      -0.032300
     18 C20          2.5190     0.1830     9.6580 ca         1 04L       0.046600
     19 O21          2.3650     1.6100    11.9000 o          1 04L      -0.601100
     20 C22          3.0930     0.0010     3.2120 ca         1 04L       0.419200
     21 C23          0.4120    -0.9560     9.8690 ca         1 04L      -0.122000
     22 C24          1.5060    -0.3430    10.4510 ca         1 04L      -0.098000
     23 C25          5.6690     3.2830    13.9220 ca         1 04L      -0.086800
     24 C26         -0.8740    -1.7220     7.8650 c3         1 04L      -0.044800
     25 C27         -0.2670     0.0010    -2.4780 ca         1 04L      -0.098000
     26 C28         -2.2410     0.0110    -1.0900 ca         1 04L      -0.098000
     27 C29          6.9410     3.1360    13.3620 ca         1 04L      -0.104000
     28 C30          5.5190     3.9800    15.1250 ca         1 04L      -0.104000
     29 C31         -1.0660     0.0050    -3.6020 ca         1 04L      -0.130500
     30 C32         -3.0290     0.0150    -2.2220 ca         1 04L      -0.130500
     31 C33          8.0390     3.6730    14.0020 ca         1 04L      -0.131000
     32 C34          6.6250     4.5100    15.7540 ca         1 04L      -0.131000
     33 C35         -2.4430     0.0170    -3.4750 ca         1 04L      -0.114000
     34 C36          7.8830     4.3560    15.1960 ca         1 04L      -0.113000
     35 HN9          2.9000     0.4930     5.8550 hn         1 04L       0.324500
     36 H10         -0.1510     0.2520     4.0940 ha         1 04L       0.169000
     37 H12          5.6270     1.9220    11.6510 ha         1 04L       0.131000
     38 HN13         4.4940     0.8460     9.7620 hn         1 04L       0.323500
     39 H15          3.5080     2.8330    13.6790 ha         1 04L       0.159000
     40 H16          3.2640     0.4200     7.6610 ha         1 04L       0.120000
     41 H22          4.0840     0.0030     3.6500 h4         1 04L       0.023100
     42 H23         -0.3750    -1.3620    10.4920 ha         1 04L       0.143000
     43 H24          1.5720    -0.2690    11.5300 ha         1 04L       0.166000
     44 H26         -1.3620    -1.0280     7.1910 hc         1 04L       0.054700
     45 H26A        -0.5500    -2.5950     7.3130 hc         1 04L       0.054700
     46 H26B        -1.5690    -2.0220     8.6400 hc         1 04L       0.054700
     47 H27          0.8120    -0.0080    -2.5790 ha         1 04L       0.142000
     48 H28         -2.7010     0.0100    -0.1090 ha         1 04L       0.142000
     49 H29          7.0650     2.6020    12.4270 ha         1 04L       0.134500
     50 H30          4.5350     4.1010    15.5630 ha         1 04L       0.134500
     51 H31         -0.6140     0.0040    -4.5870 ha         1 04L       0.136000
     52 H32         -4.1080     0.0210    -2.1300 ha         1 04L       0.136000
     53 H33          9.0260     3.5580    13.5710 ha         1 04L       0.134000
     54 H34          6.5110     5.0470    16.6870 ha         1 04L       0.134000
     55 H35         -3.0660     0.0200    -4.3620 ha         1 04L       0.133000
     56 H36          8.7480     4.7750    15.6950 ha         1 04L       0.133000
     57 HN2          1.9620     0.0010    -0.8060 hn         1 04L       0.312700
     58 N9           2.1360    -0.0020     5.4380 ns         1 04L      -0.473100
     59 N13          3.6210     0.8060    10.2510 ns         1 04L      -0.472100
@<TRIPOS>BOND
     1    15     1 1   
     2     2     1 1   
     3     1     3 2   
     4     2     4 1   
     5     3     6 1   
     6     4     8 ar  
     7     4     6 ar  
     8    58     5 1   
     9    16     5 2   
    10     5     7 1   
    11     6     9 ar  
    12     7    17 ar  
    13     7    14 ar  
    14     8    20 ar  
    15    12    58 1   
    16    58    35 1   
    17     9    12 ar  
    18     9    36 1   
    19    19    10 2   
    20    10    59 1   
    21    10    11 1   
    22    13    11 2   
    23    11    37 1   
    24    18    59 1   
    25    59    38 1   
    26    20    12 ar  
    27    13    23 1   
    28    13    39 1   
    29    14    18 ar  
    30    14    40 1   
    31    25    15 ar  
    32    15    26 ar  
    33    24    17 1   
    34    17    21 ar  
    35    18    22 ar  
    36    20    41 1   
    37    21    22 ar  
    38    21    42 1   
    39    22    43 1   
    40    27    23 ar  
    41    23    28 ar  
    42    24    44 1   
    43    24    45 1   
    44    24    46 1   
    45    29    25 ar  
    46    25    47 1   
    47    30    26 ar  
    48    26    48 1   
    49    27    31 ar  
    50    27    49 1   
    51    28    32 ar  
    52    28    50 1   
    53    29    33 ar  
    54    29    51 1   
    55    33    30 ar  
    56    30    52 1   
    57    31    34 ar  
    58    31    53 1   
    59    34    32 ar  
    60    32    54 1   
    61    33    55 1   
    62    34    56 1   
    63     2    57 1   
@<TRIPOS>SUBSTRUCTURE
     1 04L         1 TEMP              0 ****  ****    0 ROOT
