@<TRIPOS>MOLECULE
04L
   59    63     1     0     0
SMALL
bcc


@<TRIPOS>ATOM
      1 C1           0.0090    -0.2800     0.0980 cc         1 04L       0.473400
      2 N2           1.1530    -1.1040     0.2180 na         1 04L      -0.373000
      3 N3          -0.3560     0.2920     1.2720 nd         1 04L      -0.551100
      4 C4           1.5330    -1.0570     1.5670 ca         1 04L       0.369800
      5 C5           1.2000     0.2010     6.5700 c          1 04L       0.682700
      6 C6           0.5730    -0.1670     2.2180 ca         1 04L      -0.007900
      7 C7           1.7330     0.2010     7.9700 ca         1 04L      -0.125600
      8 N8           2.5660    -1.6740     2.2070 nb         1 04L      -0.638000
      9 C10          0.7090     0.0810     3.5910 ca         1 04L      -0.070000
     10 C11          3.5080    -3.3840     9.8110 c          1 04L       0.672300
     11 C12          3.9450    -4.5040    10.6840 ce         1 04L      -0.253200
     12 C14          1.7700    -0.5490     4.2580 ca         1 04L      -0.068700
     13 C15          4.4230    -5.6340    10.1390 cf         1 04L      -0.010200
     14 C16          2.1510    -1.0070     8.5300 ca         1 04L      -0.125000
     15 C17         -0.6750    -0.0990    -1.1850 ca         1 04L      -0.117900
     16 O18          0.0950     0.6960     6.2850 o          1 04L      -0.582100
     17 C19          1.7800     1.3960     8.7010 ca         1 04L      -0.043300
     18 C20          2.6470    -1.0450     9.8490 ca         1 04L       0.058600
     19 O21          3.5240    -3.4730     8.5670 o          1 04L      -0.605100
     20 C22          2.6550    -1.4110     3.5100 ca         1 04L       0.374200
     21 C23          2.2630     1.3520    10.0140 ca         1 04L      -0.115000
     22 C24          2.6930     0.1630    10.5870 ca         1 04L      -0.157000
     23 C25          4.8800    -6.7920    10.8880 ca         1 04L      -0.087800
     24 C26          1.3300     2.6790     8.1130 c3         1 04L      -0.066800
     25 C27          0.0430    -0.1150    -2.3880 ca         1 04L      -0.099000
     26 C28         -2.0630     0.1010    -1.2040 ca         1 04L      -0.099000
     27 C29          5.7110    -7.7270    10.2480 ca         1 04L      -0.103500
     28 C30          4.5100    -7.0110    12.2230 ca         1 04L      -0.103500
     29 C31         -0.6250     0.0580    -3.5990 ca         1 04L      -0.134500
     30 C32         -2.7220     0.2740    -2.4200 ca         1 04L      -0.134500
     31 C33          6.1690    -8.8480    10.9350 ca         1 04L      -0.134500
     32 C34          4.9680    -8.1370    12.9050 ca         1 04L      -0.134500
     33 C35         -2.0070     0.2500    -3.6170 ca         1 04L      -0.114000
     34 C36          5.7990    -9.0550    12.2650 ca         1 04L      -0.111000
     35 HN9          2.8740    -0.8030     5.9590 hn         1 04L       0.327500
     36 H10         -0.0030     0.7450     4.1080 ha         1 04L       0.191000
     37 H12          3.8620    -4.3690    11.7730 ha         1 04L       0.135000
     38 HN13         3.1750    -2.1960    11.4520 hn         1 04L       0.318500
     39 H15          4.4970    -5.7170     9.0360 ha         1 04L       0.155000
     40 H16          2.0850    -1.9380     7.9410 ha         1 04L       0.173000
     41 H22          3.4950    -1.9210     4.0190 h4         1 04L       0.025100
     42 H23          2.3040     2.2800    10.6060 ha         1 04L       0.139000
     43 H24          3.0670     0.1710    11.6220 ha         1 04L       0.133000
     44 H26          0.2640     2.5940     7.7790 hc         1 04L       0.057367
     45 H26A         1.4100     3.5140     8.8510 hc         1 04L       0.057367
     46 H26B         1.9510     2.9340     7.2180 hc         1 04L       0.057367
     47 H27          1.1350    -0.2450    -2.3890 ha         1 04L       0.145000
     48 H28         -2.6300     0.1260    -0.2600 ha         1 04L       0.145000
     49 H29          6.0020    -7.5690     9.1980 ha         1 04L       0.135500
     50 H30          3.8470    -6.2980    12.7340 ha         1 04L       0.135500
     51 H31         -0.0590     0.0470    -4.5420 ha         1 04L       0.137000
     52 H32         -3.8110     0.4320    -2.4320 ha         1 04L       0.137000
     53 H33          6.8230    -9.5720    10.4270 ha         1 04L       0.136500
     54 H34          4.6700    -8.3000    13.9510 ha         1 04L       0.136500
     55 H35         -2.5310     0.3870    -4.5750 ha         1 04L       0.135000
     56 H36          6.1600    -9.9420    12.8060 ha         1 04L       0.136000
     57 HN2          1.5670    -1.6480    -0.4910 hn         1 04L       0.315700
     58 N9           2.0390    -0.3720     5.6230 ns         1 04L      -0.461100
     59 N13          3.0720    -2.2340    10.4630 ns         1 04L      -0.470100
@<TRIPOS>BOND
     1     1     2 1   
     2     1     3 2   
     3     1    15 1   
     4     2     4 1   
     5     2    57 1   
     6     3     6 1   
     7     4     6 ar  
     8     4     8 ar  
     9     5     7 1   
    10     5    16 2   
    11     5    58 1   
    12     6     9 ar  
    13     7    14 ar  
    14     7    17 ar  
    15     8    20 ar  
    16     9    12 ar  
    17     9    36 1   
    18    10    11 1   
    19    10    19 2   
    20    10    59 1   
    21    11    13 2   
    22    11    37 1   
    23    12    20 ar  
    24    12    58 1   
    25    13    23 1   
    26    13    39 1   
    27    14    18 ar  
    28    14    40 1   
    29    15    25 ar  
    30    15    26 ar  
    31    17    21 ar  
    32    17    24 1   
    33    18    22 ar  
    34    18    59 1   
    35    20    41 1   
    36    21    22 ar  
    37    21    42 1   
    38    22    43 1   
    39    23    27 ar  
    40    23    28 ar  
    41    24    44 1   
    42    24    45 1   
    43    24    46 1   
    44    25    29 ar  
    45    25    47 1   
    46    26    30 ar  
    47    26    48 1   
    48    27    31 ar  
    49    27    49 1   
    50    28    32 ar  
    51    28    50 1   
    52    29    33 ar  
    53    29    51 1   
    54    30    33 ar  
    55    30    52 1   
    56    31    34 ar  
    57    31    53 1   
    58    32    34 ar  
    59    32    54 1   
    60    33    55 1   
    61    34    56 1   
    62    35    58 1   
    63    38    59 1   
@<TRIPOS>SUBSTRUCTURE
     1 04L         1 TEMP              0 ****  ****    0 ROOT
