@<TRIPOS>MOLECULE
04M
   69    71     1     0     0
SMALL
bcc


@<TRIPOS>ATOM
      1 CAA          3.5340     5.1120     3.1800 c3         1 04M      -0.110100
      2 OAB          6.2960     8.6510     0.3160 o          1 04M      -0.814800
      3 OAC          7.6550    12.7060     4.2450 o          1 04M      -0.670800
      4 OAD          9.0380    11.7640     5.9490 o          1 04M      -0.670800
      5 OAE          4.9840     7.9130     1.9690 o          1 04M      -0.814800
      6 CAF          7.6670     5.2460    -1.8220 ca         1 04M      -0.124000
      7 CAG          7.5500     5.8460    -0.5690 ca         1 04M      -0.101000
      8 CAH          7.8220     3.8660    -1.9400 ca         1 04M      -0.149000
      9 CAI          9.1330     9.3350     4.4420 ca         1 04M      -0.022000
     10 CAJ          9.2490     8.1530     3.7340 ca         1 04M      -0.195000
     11 CAK          7.7840     3.6770     0.4910 ca         1 04M      -0.165000
     12 CAL          7.0960     9.8410     3.2690 ca         1 04M       0.027000
     13 CAM          4.1840     4.0040     2.3950 c3         1 04M      -0.078400
     14 CAN          4.0080     2.6510     3.0540 c3         1 04M      -0.079400
     15 CAO          4.7580     1.5600     2.3170 c3         1 04M      -0.079400
     16 CAP          3.9880     1.0360     1.1230 c3         1 04M      -0.078400
     17 CAQ          4.8470     0.1830     0.2110 c3         1 04M      -0.071400
     18 CAR          5.7900     1.0000    -0.6500 c3         1 04M      -0.117400
     19 CAS          7.2360     0.8630    -0.2100 c3         1 04M       0.134400
     20 CAT          4.3550    12.3080     6.5810 c3         1 04M       0.118400
     21 CAU          5.7410    11.5680     8.3550 c3         1 04M       0.118400
     22 CAW          5.2430    11.5880     5.5570 c3         1 04M       0.191300
     23 CAX          6.6490    10.8230     7.3650 c3         1 04M       0.191300
     24 OAY          4.4110    11.6960     7.8660 os         1 04M      -0.420600
     25 OAZ          8.1040     1.7240    -0.9480 os         1 04M      -0.349900
     26 OBA          8.5420     6.6320     2.1060 os         1 04M      -0.340900
     27 CBC          7.6150     5.0610     0.5880 ca         1 04M      -0.070300
     28 CBD          7.8720     3.0860    -0.7750 ca         1 04M       0.077100
     29 CBE          8.0470    10.2020     4.2350 ca         1 04M      -0.452500
     30 CBF          8.2610     7.8000     2.7860 ca         1 04M       0.197100
     31 CBG          7.1760     8.6550     2.5400 ca         1 04M      -0.180600
     32 NBH          6.5820    11.3640     6.0350 n3         1 04M      -0.808500
     33 HAA          2.4230     4.9970     3.1810 hc         1 04M       0.045367
     34 HAAA         3.8860     5.1050     4.2400 hc         1 04M       0.045367
     35 HAAB         3.7960     6.1050     2.7280 hc         1 04M       0.045367
     36 HAF          7.6220     5.8680    -2.7280 ha         1 04M       0.131000
     37 HAG          7.3800     6.9390    -0.4720 ha         1 04M       0.206000
     38 HAH          7.9110     3.3840    -2.9220 ha         1 04M       0.131000
     39 HAI          9.9030     9.6100     5.1840 ha         1 04M       0.141000
     40 HAJ         10.1040     7.4810     3.8890 ha         1 04M       0.138000
     41 HAK          7.8390     3.0600     1.3980 ha         1 04M       0.129000
     42 HAL          6.2470    10.5190     3.0670 ha         1 04M       0.144000
     43 HAM          3.7550     3.9770     1.3580 hc         1 04M       0.042200
     44 HAMA         5.2820     4.2250     2.2860 hc         1 04M       0.042200
     45 HAN          2.9180     2.3960     3.1080 hc         1 04M       0.031700
     46 HANA         4.3880     2.7070     4.1090 hc         1 04M       0.031700
     47 HAO          5.7510     1.9590     1.9750 hc         1 04M       0.034700
     48 HAOA         4.9660     0.7100     3.0190 hc         1 04M       0.034700
     49 HAP          3.1190     0.4250     1.4860 hc         1 04M       0.040700
     50 HAPA         3.5630     1.8980     0.5420 hc         1 04M       0.040700
     51 HAQ          5.4270    -0.5540     0.8280 hc         1 04M       0.032200
     52 HAQA         4.1700    -0.4120    -0.4580 hc         1 04M       0.032200
     53 HAR          5.5070     2.0870    -0.6200 hc         1 04M       0.057200
     54 HARA         5.7080     0.6740    -1.7200 hc         1 04M       0.057200
     55 HAS          7.6370    -0.1600    -0.4470 h1         1 04M       0.043700
     56 HASA         7.3420     1.0560     0.8890 h1         1 04M       0.043700
     57 HAU          5.6340    10.9730     9.3000 h1         1 04M       0.048450
     58 HAUA         6.1530    12.5860     8.5850 h1         1 04M       0.048450
     59 HAW          4.7640    10.5980     5.3020 h1         1 04M       0.063450
     60 HAWA         5.2870    12.2150     4.6190 h1         1 04M       0.063450
     61 HAX          6.3350     9.7390     7.3470 h1         1 04M       0.063450
     62 HAXA         7.7120    10.8840     7.7370 h1         1 04M       0.063450
     63 CBB          6.0690     8.3840     1.5250 c          1 04M       0.912200
     64 HAT          3.2780    12.2230     6.2810 h1         1 04M       0.048450
     65 CAV          7.4630     5.6990     1.9320 c3         1 04M       0.160700
     66 SBI          7.9080    11.6080     5.1000 sy         1 04M       1.523200
     67 HATA         4.6480    13.3870     6.6730 h1         1 04M       0.048450
     68 HAV          7.5800     4.9390     2.7540 h1         1 04M       0.074200
     69 HAVA         6.4550     6.1920     2.0170 h1         1 04M       0.074200
@<TRIPOS>BOND
     1     1    13 1   
     2     1    33 1   
     3     1    34 1   
     4     1    35 1   
     5     2    63 1   
     6     3    66 2   
     7     4    66 2   
     8     5    63 1   
     9     6     7 ar  
    10     6     8 ar  
    11     6    36 1   
    12     7    27 ar  
    13     7    37 1   
    14     8    28 ar  
    15     8    38 1   
    16     9    10 ar  
    17     9    29 ar  
    18     9    39 1   
    19    10    30 ar  
    20    10    40 1   
    21    11    27 ar  
    22    11    28 ar  
    23    11    41 1   
    24    12    29 ar  
    25    12    31 ar  
    26    12    42 1   
    27    13    14 1   
    28    13    43 1   
    29    13    44 1   
    30    14    15 1   
    31    14    45 1   
    32    14    46 1   
    33    15    16 1   
    34    15    47 1   
    35    15    48 1   
    36    16    17 1   
    37    16    49 1   
    38    16    50 1   
    39    17    18 1   
    40    17    51 1   
    41    17    52 1   
    42    18    19 1   
    43    18    53 1   
    44    18    54 1   
    45    19    25 1   
    46    19    55 1   
    47    19    56 1   
    48    20    22 1   
    49    20    24 1   
    50    20    64 1   
    51    20    67 1   
    52    21    23 1   
    53    21    24 1   
    54    21    57 1   
    55    21    58 1   
    56    22    32 1   
    57    22    59 1   
    58    22    60 1   
    59    23    32 1   
    60    23    61 1   
    61    23    62 1   
    62    25    28 1   
    63    26    30 1   
    64    26    65 1   
    65    27    65 1   
    66    29    66 1   
    67    30    31 ar  
    68    31    63 1   
    69    32    66 1   
    70    65    68 1   
    71    65    69 1   
@<TRIPOS>SUBSTRUCTURE
     1 04M         1 TEMP              0 ****  ****    0 ROOT
