@<TRIPOS>MOLECULE
04M
   69    71     1     0     0
SMALL
bcc


@<TRIPOS>ATOM
      1 CAA          0.0000     0.0000     0.0000 c3         1 04M       0.005900
      2 OAB         12.7050     5.2590    10.5280 o          1 04M      -0.872800
      3 OAC         13.9630     3.4310    14.9680 o          1 04M      -0.601300
      4 OAD         14.0880     0.9510    15.2580 o          1 04M      -0.601300
      5 OAE         12.0640     3.8590     8.9290 o          1 04M      -0.872800
      6 CAF         11.6890    -0.0010     4.9370 ca         1 04M      -0.067000
      7 CAG         12.2160     0.0040     6.2150 ca         1 04M      -0.112000
      8 CAH         10.3190    -0.0020     4.7540 ca         1 04M      -0.214000
      9 CAI         13.5020     0.6400    12.4290 ca         1 04M       0.016000
     10 CAJ         12.9770     0.4530    11.1670 ca         1 04M      -0.282000
     11 CAK         10.0050     0.0110     7.1330 ca         1 04M      -0.108000
     12 CAL         13.3850     3.0190    12.1560 ca         1 04M       0.071000
     13 CAM          1.5300     0.0000     0.0000 c3         1 04M      -0.028400
     14 CAN          2.0400     0.0000     1.4420 c3         1 04M      -0.029400
     15 CAO          3.5700    -0.0010     1.4420 c3         1 04M      -0.029400
     16 CAP          4.0800     0.0010     2.8840 c3         1 04M      -0.028400
     17 CAQ          5.6100    -0.0010     2.8850 c3         1 04M      -0.024400
     18 CAR          6.1200     0.0000     4.3270 c3         1 04M      -0.036400
     19 CAS          7.6490    -0.0010     4.3270 c3         1 04M       0.203400
     20 CAT         17.9730     1.2190    15.4570 c3         1 04M       0.198400
     21 CAU         17.8560     3.6000    15.1790 c3         1 04M       0.198400
     22 CAW         16.8390     0.9830    14.4530 c3         1 04M       0.194800
     23 CAX         16.7140     3.4860    14.1590 c3         1 04M       0.194800
     24 OAY         18.6640     2.4220    15.1130 os         1 04M      -0.419600
     25 OAZ          8.1270     0.0010     5.6740 os         1 04M      -0.306900
     26 OBA         12.1380     1.3650     9.1370 os         1 04M      -0.221900
     27 CBC         11.3750     0.0110     7.3130 ca         1 04M      -0.044300
     28 CBD          9.4730    -0.0000     5.8530 ca         1 04M       0.143100
     29 CBE         13.7050     1.9190    12.9220 ca         1 04M      -0.225500
     30 CBF         12.6540     1.5480    10.3780 ca         1 04M       0.215100
     31 CBG         12.8630     2.8440    10.8710 ca         1 04M      -0.167600
     32 NBH         16.0230     2.2050    14.3780 n3         1 04M      -0.535500
     33 HAA         -0.3610     0.0000    -1.0210 hc         1 04M      -0.001300
     34 HAAA        -0.3610     0.8840     0.5110 hc         1 04M      -0.001300
     35 HAAB        -0.3610    -0.8850     0.5100 hc         1 04M      -0.001300
     36 HAF         12.3500    -0.0040     4.0790 ha         1 04M       0.093000
     37 HAG         13.2900     0.0040     6.3560 ha         1 04M       0.108000
     38 HAH          9.9070    -0.0080     3.7520 ha         1 04M       0.110000
     39 HAI         13.7550    -0.2180    13.0400 ha         1 04M       0.100000
     40 HAJ         12.8220    -0.5500    10.7890 ha         1 04M       0.109000
     41 HAK          9.3460     0.0140     7.9930 ha         1 04M       0.120000
     42 HAL         13.5450     4.0170    12.5450 ha         1 04M       0.149000
     43 HAM          1.8910     0.8850    -0.5110 hc         1 04M       0.011700
     44 HAMA         1.8910    -0.8850    -0.5110 hc         1 04M       0.011700
     45 HAN          1.6780    -0.8840     1.9530 hc         1 04M       0.014700
     46 HANA         1.6790     0.8850     1.9530 hc         1 04M       0.014700
     47 HAO          3.9310    -0.8860     0.9320 hc         1 04M       0.013700
     48 HAOA         3.9320     0.8830     0.9300 hc         1 04M       0.013700
     49 HAP          3.7170    -0.8830     3.3960 hc         1 04M       0.016200
     50 HAPA         3.7190     0.8860     3.3940 hc         1 04M       0.016200
     51 HAQ          5.9700    -0.8860     2.3750 hc         1 04M       0.013700
     52 HAQA         5.9720     0.8830     2.3730 hc         1 04M       0.013700
     53 HAR          5.7590    -0.8840     4.8390 hc         1 04M       0.024700
     54 HARA         5.7600     0.8850     4.8370 hc         1 04M       0.024700
     55 HAS          8.0100    -0.8860     3.8170 h1         1 04M      -0.000300
     56 HASA         8.0110     0.8830     3.8150 h1         1 04M      -0.000300
     57 HAU         18.4620     4.4670    14.9450 h1         1 04M       0.007200
     58 HAUA        17.4420     3.6990    16.1750 h1         1 04M       0.007200
     59 HAW         17.2560     0.7640    13.4770 h1         1 04M       0.032700
     60 HAWA        16.2240     0.1560    14.7870 h1         1 04M       0.032700
     61 HAX         16.0170     4.3030    14.3000 h1         1 04M       0.032700
     62 HAXA        17.1190     3.5130    13.1550 h1         1 04M       0.032700
     63 CBB         12.5180     4.0150    10.0450 c          1 04M       0.974200
     64 HAT         18.6640     0.3850    15.4230 h1         1 04M       0.007200
     65 CAV         11.9530     0.0150     8.7040 c3         1 04M       0.237700
     66 SBI         14.3750     2.1410    14.5360 sy         1 04M       1.051200
     67 HATA        17.5590     1.3130    16.4530 h1         1 04M       0.007200
     68 HAV         11.2730    -0.4910     9.3790 h1         1 04M      -0.003800
     69 HAVA        12.9070    -0.4970     8.7000 h1         1 04M      -0.003800
@<TRIPOS>BOND
     1     1    13 1   
     2     1    33 1   
     3     1    34 1   
     4     1    35 1   
     5     2    63 1   
     6     3    66 2   
     7     4    66 2   
     8     5    63 1   
     9     6     7 ar  
    10     6     8 ar  
    11     6    36 1   
    12     7    27 ar  
    13     7    37 1   
    14     8    28 ar  
    15     8    38 1   
    16     9    10 ar  
    17     9    29 ar  
    18     9    39 1   
    19    10    30 ar  
    20    10    40 1   
    21    11    27 ar  
    22    11    28 ar  
    23    11    41 1   
    24    12    29 ar  
    25    12    31 ar  
    26    12    42 1   
    27    13    14 1   
    28    13    43 1   
    29    13    44 1   
    30    14    15 1   
    31    14    45 1   
    32    14    46 1   
    33    15    16 1   
    34    15    47 1   
    35    15    48 1   
    36    16    17 1   
    37    16    49 1   
    38    16    50 1   
    39    17    18 1   
    40    17    51 1   
    41    17    52 1   
    42    18    19 1   
    43    18    53 1   
    44    18    54 1   
    45    19    25 1   
    46    19    55 1   
    47    19    56 1   
    48    20    22 1   
    49    20    24 1   
    50    20    64 1   
    51    20    67 1   
    52    21    23 1   
    53    21    24 1   
    54    21    57 1   
    55    21    58 1   
    56    22    32 1   
    57    22    59 1   
    58    22    60 1   
    59    23    32 1   
    60    23    61 1   
    61    23    62 1   
    62    25    28 1   
    63    26    30 1   
    64    26    65 1   
    65    27    65 1   
    66    29    66 1   
    67    30    31 ar  
    68    31    63 1   
    69    32    66 1   
    70    65    68 1   
    71    65    69 1   
@<TRIPOS>SUBSTRUCTURE
     1 04M         1 TEMP              0 ****  ****    0 ROOT
