@<TRIPOS>MOLECULE
04N
   37    39     1     0     0
SMALL
bcc


@<TRIPOS>ATOM
      1 C1           0.0000     0.0000     0.0000 c3         1 04N       0.410900
      2 O1          -0.4740    -1.2100     0.5930 oh         1 04N      -0.628800
      3 C2           1.5300     0.0000     0.0000 c3         1 04N      -0.138500
      4 N2           2.0180    -1.1990    -0.6940 nz         1 04N       0.092400
      5 C3           2.0470     0.0000     1.4440 c3         1 04N       0.185100
      6 O3           3.4730     0.0920     1.4440 oh         1 04N      -0.576800
      7 C4           1.4530     1.2070     2.1700 c3         1 04N       0.142100
      8 O4           1.8560     1.2340     3.5390 os         1 04N      -0.406600
      9 C5          -0.0760     1.1100     2.1130 c3         1 04N       0.089100
     10 O5          -0.4890     1.1190     0.7480 os         1 04N      -0.372600
     11 C6          -0.6660     2.2970     2.8770 c3         1 04N       0.226400
     12 O6          -0.1300     2.2880     4.2050 os         1 04N      -0.393600
     13 CAL          2.5430     2.1130     8.3470 ca         1 04N      -0.075000
     14 CAM          2.9340     1.1360     7.4510 ca         1 04N      -0.098500
     15 CAN          1.7570     3.1700     7.9190 ca         1 04N      -0.098500
     16 CAO          2.5400     1.2140     6.1250 ca         1 04N      -0.069000
     17 CAP          1.3260     3.2210     6.6110 ca         1 04N      -0.069000
     18 CBC          1.7370     2.2560     5.7060 ca         1 04N      -0.129300
     19 CBP          1.2960     2.3330     4.2670 c3         1 04N       0.463200
     20 H1          -0.3570     0.0690    -1.0200 h2         1 04N       0.034700
     21 H2           1.8880     0.8870    -0.5090 hx         1 04N       0.116700
     22 HN2          3.0060    -1.1240    -0.8370 hn         1 04N       0.226800
     23 HN2A         1.8220    -2.0090    -0.1390 hn         1 04N       0.226800
     24 H3           1.7360    -0.9110     1.9410 h1         1 04N       0.042700
     25 HO3          3.8330    -0.6080     1.9620 ho         1 04N       0.422000
     26 H4           1.7760     2.1180     1.6800 h1         1 04N       0.040700
     27 H5          -0.3960     0.1860     2.5800 h1         1 04N       0.056700
     28 H6          -1.7410     2.1760     2.9380 h1         1 04N       0.028700
     29 H6A         -0.4380     3.2090     2.3380 h1         1 04N       0.028700
     30 HAN          1.4520     3.9370     8.6220 ha         1 04N       0.109500
     31 HAO          2.8230     0.4340     5.4290 ha         1 04N       0.108000
     32 HAP          0.7240     4.0550     6.2710 ha         1 04N       0.108000
     33 HBP          1.6420     3.2620     3.8310 h2         1 04N       0.007700
     34 H7          -1.3170    -1.4290     0.2300 ho         1 04N       0.445000
     35 HAL          2.8520     2.0520     9.3830 ha         1 04N       0.110000
     36 H23          1.5760    -1.2700    -1.5890 hn         1 04N       0.226800
     37 HAM          3.5480     0.3080     7.7860 ha         1 04N       0.109500
@<TRIPOS>BOND
     1     1     2 1
     2     1     3 1
     3     1    10 1
     4     1    20 1
     5     2    34 1
     6     3     4 1
     7     3     5 1
     8     3    21 1
     9     4    22 1
    10     4    23 1
    11     4    36 1
    12     5     6 1
    13     5     7 1
    14     5    24 1
    15     6    25 1
    16     7     8 1
    17     7     9 1
    18     7    26 1
    19     8    19 1
    20     9    10 1
    21     9    11 1
    22     9    27 1
    23    11    12 1
    24    11    28 1
    25    11    29 1
    26    12    19 1
    27    13    14 ar
    28    13    15 ar
    29    13    35 1
    30    14    16 ar
    31    14    37 1
    32    15    17 ar
    33    15    30 1
    34    16    18 ar
    35    16    31 1
    36    17    18 ar
    37    17    32 1
    38    18    19 1
    39    19    33 1
@<TRIPOS>SUBSTRUCTURE
     1 04N         1 TEMP              0 ****  ****    0 ROOT
