@<TRIPOS>MOLECULE
04N
   37    39     1     0     0
SMALL
bcc


@<TRIPOS>ATOM
      1 C1           0.0390     0.0150    -0.0400 c3         1 04N       0.332900
      2 O1          -0.3690    -1.2600     0.3910 oh         1 04N      -0.659800
      3 C2           1.5980     0.0250    -0.0320 c3         1 04N       0.082500
      4 N2           2.1540    -1.1520    -0.7710 nz         1 04N      -0.827600
      5 C3           2.1620     0.0530     1.4140 c3         1 04N       0.137100
      6 O3           3.5600     0.2070     1.2830 oh         1 04N      -0.628800
      7 C4           1.4800     1.2250     2.1220 c3         1 04N       0.081100
      8 O4           1.9720     1.2980     3.4500 os         1 04N      -0.430600
      9 C5          -0.0300     0.9430     2.1500 c3         1 04N       0.062100
     10 O5          -0.5380     0.9710     0.8140 os         1 04N      -0.400600
     11 C6          -0.6870     2.0410     2.9900 c3         1 04N       0.137400
     12 O6          -0.0340     2.0420     4.2550 os         1 04N      -0.404600
     13 CAL          3.0030     2.3890     8.1450 ca         1 04N      -0.098000
     14 CAM          2.0420     1.4370     7.8070 ca         1 04N      -0.131500
     15 CAN          3.4240     3.3260     7.1990 ca         1 04N      -0.131500
     16 CAO          1.5010     1.4160     6.5210 ca         1 04N      -0.090500
     17 CAP          2.8850     3.3130     5.9140 ca         1 04N      -0.090500
     18 CBC          1.9220     2.3550     5.5760 ca         1 04N      -0.111300
     19 CBP          1.3480     2.3640     4.1930 c3         1 04N       0.387200
     20 H1          -0.3640     0.2630    -1.0650 h2         1 04N       0.104700
     21 H2           1.9460     0.9600    -0.5680 hx         1 04N       0.132700
     22 HN2          1.7320    -2.0130    -0.3980 hn         1 04N       0.472133
     23 HN2A         3.1730    -1.1780    -0.6260 hn         1 04N       0.472133
     24 H3           1.9360    -0.9090     1.9580 h1         1 04N       0.090700
     25 HO3          3.8980     0.5350     2.1330 ho         1 04N       0.472000
     26 H4           1.6970     2.1890     1.5820 h1         1 04N       0.072700
     27 H5          -0.2340    -0.0640     2.6080 h1         1 04N       0.088700
     28 H6          -1.7580     1.8060     3.2210 h1         1 04N       0.082700
     29 H6A         -0.6020     3.0380     2.4870 h1         1 04N       0.082700
     30 HAN          4.1800     4.0790     7.4690 ha         1 04N       0.145000
     31 HAO          0.7350     0.6750     6.2480 ha         1 04N       0.139500
     32 HAP          3.2150     4.0560     5.1730 ha         1 04N       0.139500
     33 HBP          1.5110     3.3430     3.6580 h2         1 04N       0.058700
     34 H7          -1.3170    -1.2270     0.5940 ho         1 04N       0.471000
     35 HAL          3.4290     2.4050     9.1610 ha         1 04N       0.146000
     36 H23          1.9440    -1.0790    -1.7690 hn         1 04N       0.472133
     37 HAM          1.7070     0.7020     8.5540 ha         1 04N       0.145000
@<TRIPOS>BOND
     1     1     2 1   
     2     1     3 1   
     3     1    10 1   
     4     1    20 1   
     5     2    34 1   
     6     3     4 1   
     7     3     5 1   
     8     3    21 1   
     9     4    22 1   
    10     4    23 1   
    11     4    36 1   
    12     5     6 1   
    13     5     7 1   
    14     5    24 1   
    15     6    25 1   
    16     7     8 1   
    17     7     9 1   
    18     7    26 1   
    19     8    19 1   
    20     9    10 1   
    21     9    11 1   
    22     9    27 1   
    23    11    12 1   
    24    11    28 1   
    25    11    29 1   
    26    12    19 1   
    27    13    14 ar  
    28    13    15 ar  
    29    13    35 1   
    30    14    16 ar  
    31    14    37 1   
    32    15    17 ar  
    33    15    30 1   
    34    16    18 ar  
    35    16    31 1   
    36    17    18 ar  
    37    17    32 1   
    38    18    19 1   
    39    19    33 1   
@<TRIPOS>SUBSTRUCTURE
     1 04N         1 TEMP              0 ****  ****    0 ROOT
