@<TRIPOS>MOLECULE
molecule
   43    45     1     0     0
SMALL
bcc


@<TRIPOS>ATOM
      1 C11          0.0000     0.0000     0.0000 c3         1 04O       0.343900
      2 O11         -0.4750    -1.2110     0.5940 oh         1 04O      -0.572800
      3 C16          1.6890     3.4170     7.9190 ca         1 04O      -0.248300
      4 C21          1.5300     0.0000     0.0000 c3         1 04O       0.051500
      5 N21          2.0190    -1.1990    -0.6930 nz         1 04O      -0.926600
      6 C26          2.9040     3.9540     8.3000 ca         1 04O      -0.230500
      7 C31          2.0460     0.0000     1.4440 c3         1 04O       0.133100
      8 O31          3.4720     0.0930     1.4440 oh         1 04O      -0.588800
      9 C36          3.3080     3.8840     9.6200 ca         1 04O      -0.290500
     10 C41          1.4520     1.2070     2.1710 c3         1 04O       0.066100
     11 O41          1.8540     1.2340     3.5400 os         1 04O      -0.430600
     12 C46          2.4970     3.2760    10.5590 ca         1 04O      -0.505000
     13 C51         -0.0770     1.1100     2.1120 c3         1 04O       0.129100
     14 O51         -0.4900     1.1180     0.7480 os         1 04O      -0.368600
     15 C56          1.2800     2.7390    10.1790 ca         1 04O      -0.290500
     16 C61         -0.6670     2.2970     2.8750 c3         1 04O       0.016400
     17 O61         -0.1320     2.2880     4.2050 os         1 04O      -0.412600
     18 C66          0.8800     2.8030     8.8570 ca         1 04O      -0.230500
     19 CBJ          1.2950     2.3330     4.2670 c3         1 04O       0.296900
     20 H11         -0.3570     0.0690    -1.0200 h2         1 04O       0.138700
     21 H21          1.9090     0.8900    -0.4890 hx         1 04O       0.109700
     22 HN21         1.2610    -1.1170    -1.3420 hn         1 04O       0.478133
     23 HN2A         2.2520    -0.2600    -0.9520 hn         1 04O       0.478133
     24 H26          1.8530     4.1580     8.1340 ha         1 04O       0.322000
     25 H31          1.7160    -0.9110     1.9290 h1         1 04O       0.107700
     26 HO31         3.7230     0.9150     1.8310 ho         1 04O       0.454000
     27 H35          1.5470     1.2820     5.2930 hc         1 04O       0.206700
     28 H35A         1.1340     1.8050     6.5040 hc         1 04O       0.206700
     29 H36          3.9790     3.2390    10.1750 ha         1 04O       0.321500
     30 H41          1.7630     2.1240     1.6850 h1         1 04O       0.078700
     31 H45          0.1660     3.5310     6.4580 hc         1 04O       0.116700
     32 H45A         1.6780     3.8900     5.5680 hc         1 04O       0.116700
     33 H46          3.4870     3.3280    10.1240 ha         1 04O       0.442000
     34 H51         -0.3890     0.1920     2.5960 h1         1 04O       0.060700
     35 H56          2.1090     2.7030    10.8750 ha         1 04O       0.321500
     36 H61         -1.0460     1.3230     3.1590 h1         1 04O       0.119700
     37 H61A        -1.5740     2.8260     2.6090 h1         1 04O       0.119700
     38 H66          1.0350     3.0620     7.8160 ha         1 04O       0.322000
     39 HBJ          1.6410     3.2620     3.8310 h2         1 04O       0.073700
     40 H2           0.0520    -1.4290     1.3450 ho         1 04O       0.426000
     41 C35          1.7420     2.2550     5.7280 c3         1 04O      -0.422400
     42 C45          1.2480     3.4930     6.4800 c3         1 04O      -0.016100
     43 H213         2.9140    -1.4960    -1.0270 hn         1 04O       0.478133
@<TRIPOS>BOND
     1     1     2 1   
     2     1     4 1   
     3     1    14 1   
     4     3     6 ar  
     5     3    42 1   
     6     3    18 ar  
     7     4     5 1   
     8     4     7 1   
     9     6     9 ar  
    10     7     8 1   
    11     7    10 1   
    12    41    42 1   
    13    41    19 1   
    14     9    12 ar  
    15    10    11 1   
    16    10    13 1   
    17    11    19 1   
    18    12    15 ar  
    19    13    14 1   
    20    13    16 1   
    21    15    18 ar  
    22    16    17 1   
    23    17    19 1   
    24     1    20 1   
    25     4    21 1   
    26     5    22 1   
    27     5    23 1   
    28     6    24 1   
    29     7    25 1   
    30     8    26 1   
    31    41    27 1   
    32    41    28 1   
    33     9    29 1   
    34    10    30 1   
    35    42    31 1   
    36    42    32 1   
    37    12    33 1   
    38    13    34 1   
    39    15    35 1   
    40    16    36 1   
    41    16    37 1   
    42    18    38 1   
    43    19    39 1   
    44     2    40 1   
    45    43     5 1   
@<TRIPOS>SUBSTRUCTURE
     1 04O         1 TEMP              0 ****  ****    0 ROOT
