@<TRIPOS>MOLECULE
molecule
   43    45     1     0     0
SMALL
bcc


@<TRIPOS>ATOM
      1 C11          0.0000     0.0000     0.0000 c3         1 04O       0.078900
      2 O11         -0.5140    -1.2090     0.6220 oh         1 04O      -0.618800
      3 C16          2.0990     3.1710     8.0530 ca         1 04O      -0.098300
      4 C21          1.5520     0.0000     0.0000 c3         1 04O       0.059500
      5 N21          2.0620    -1.1630    -0.7230 nz         1 04O      -0.814600
      6 C26          2.1570     1.8440     8.6480 ca         1 04O      -0.124500
      7 C31          2.0780     0.0000     1.4390 c3         1 04O       0.119100
      8 O31          3.5240     0.0240     1.4560 oh         1 04O      -0.621800
      9 C36          2.6720     1.6630     9.9690 ca         1 04O      -0.123500
     10 C41          1.5230     1.2110     2.1840 c3         1 04O       0.084100
     11 O41          1.9860     1.2140     3.5420 os         1 04O      -0.428600
     12 C46          3.1280     2.7910    10.7080 ca         1 04O      -0.119000
     13 C51         -0.0200     1.1720     2.1390 c3         1 04O      -0.006900
     14 O51         -0.4990     1.1630     0.7390 os         1 04O      -0.241600
     15 C56          3.0720     4.1060    10.1240 ca         1 04O      -0.123500
     16 C61         -0.5450     2.3910     2.9060 c3         1 04O       0.118400
     17 O61         -0.0210     2.3150     4.2660 os         1 04O      -0.398600
     18 C66          2.5610     4.2990     8.8010 ca         1 04O      -0.124500
     19 CBJ          1.4610     2.3560     4.2710 c3         1 04O       0.324900
     20 C35          1.9970     2.2450     5.7020 c3         1 04O      -0.069400
     21 C45          1.5360     3.3740     6.6260 c3         1 04O      -0.032100
     22 H11          0.3110     0.5010     0.9090 h2         1 04O       0.253700
     23 H21          1.8890     0.8980    -0.5050 hx         1 04O       0.117700
     24 HN21         1.1960    -1.0970    -1.2190 hn         1 04O       0.466800
     25 HN2A         2.5900    -0.3900    -1.0770 hn         1 04O       0.466800
     26 H26          1.8300     0.9810     8.0810 ha         1 04O       0.130000
     27 H31          1.7310    -0.8990     1.9350 h1         1 04O       0.086700
     28 HO31         3.8390     0.8430     1.1100 ho         1 04O       0.463000
     29 H35          1.6580     1.2210     5.5960 hc         1 04O       0.082200
     30 H35A         3.0800     2.2520     5.6830 hc         1 04O       0.082200
     31 H36          2.7120     0.6740    10.4090 ha         1 04O       0.139000
     32 H41          1.8350     2.1170     1.6780 h1         1 04O       0.062700
     33 H45          0.4540     3.3930     6.6620 hc         1 04O       0.053200
     34 H45A         1.8870     3.8620     5.7250 hc         1 04O       0.053200
     35 H46          3.4960     2.6670    11.7200 ha         1 04O       0.141000
     36 H51         -0.3570     0.2720     2.6390 h1         1 04O       0.138700
     37 H56          3.4740     4.9580    10.6580 ha         1 04O       0.139000
     38 H61         -0.9200     1.4110     3.1760 h1         1 04O       0.079700
     39 H61A        -1.4180     2.9520     2.5980 h1         1 04O       0.079700
     40 H66          2.5310     5.2870     8.3580 ha         1 04O       0.130000
     41 HBJ          1.8410     3.2770     3.8450 h2         1 04O       0.056700
     42 H2          -1.4420    -1.2070     0.4570 ho         1 04O       0.471000
     43 H213         2.4220    -1.8550    -0.0960 hn         1 04O       0.466800
@<TRIPOS>BOND
     1     1     2 1   
     2     1     4 1   
     3     1    14 1   
     4     3     6 ar  
     5     3    21 1   
     6     3    18 ar  
     7     4     5 1   
     8     4     7 1   
     9     6     9 ar  
    10     7     8 1   
    11     7    10 1   
    12    20    21 1   
    13    20    19 1   
    14     9    12 ar  
    15    10    11 1   
    16    10    13 1   
    17    11    19 1   
    18    12    15 ar  
    19    13    14 1   
    20    13    16 1   
    21    15    18 ar  
    22    16    17 1   
    23    17    19 1   
    24     1    22 1   
    25     4    23 1   
    26     5    24 1   
    27     5    25 1   
    28     6    26 1   
    29     7    27 1   
    30     8    28 1   
    31    20    29 1   
    32    20    30 1   
    33     9    31 1   
    34    10    32 1   
    35    21    33 1   
    36    21    34 1   
    37    12    35 1   
    38    13    36 1   
    39    15    37 1   
    40    16    38 1   
    41    16    39 1   
    42    18    40 1   
    43    19    41 1   
    44     2    42 1   
    45    43     5 1   
@<TRIPOS>SUBSTRUCTURE
     1 04O         1 TEMP              0 ****  ****    0 ROOT
