@<TRIPOS>MOLECULE
04P
   27    27     1     0     0
SMALL
bcc


@<TRIPOS>ATOM
      1 C20         -0.0090    -0.0540    -0.4280 c3         1 04P       0.135400
      2 C27          1.5160     0.0260    -0.3770 c3         1 04P      -0.090700
      3 C32          1.9620     0.3260     1.0600 c3         1 04P       0.165800
      4 C33          2.1440    -1.2720    -0.8590 c3         1 04P      -0.083400
      5 N37          3.4060     0.2890     1.2880 nh         1 04P      -0.693600
      6 C38          3.6490    -1.2420    -0.7080 c3         1 04P      -0.110400
      7 C40          4.0550    -0.8940     0.7200 c3         1 04P       0.171800
      8 C41          4.0670     1.5280     0.9930 c2         1 04P       0.718100
      9 N42          4.5590     1.9420    -0.1060 n2         1 04P      -0.704100
     10 N43          4.1550     2.3600     2.3140 nz         1 04P      -0.890600
     11 OXT         -0.4390    -0.9490     0.5850 oh         1 04P      -0.613800
     12 H201        -0.3320    -0.4130    -1.4410 h1         1 04P       0.040200
     13 H202        -0.4540     0.9600    -0.2350 h1         1 04P       0.040200
     14 H27          1.8360     0.8640    -1.0550 hc         1 04P       0.061700
     15 H321         1.5530     1.3240     1.3770 h1         1 04P       0.080200
     16 H322         1.5320    -0.4680     1.7420 h1         1 04P       0.080200
     17 H331         1.8790    -1.4380    -1.9360 hc         1 04P       0.069700
     18 H332         1.7130    -2.1260    -0.2700 hc         1 04P       0.069700
     19 H381         4.0920    -0.5040    -1.4270 hc         1 04P       0.071700
     20 H382         4.0750    -2.2500    -0.9560 hc         1 04P       0.071700
     21 H401         3.7490    -1.7360     1.4090 h1         1 04P       0.078200
     22 H402         5.1710    -0.7740     0.7790 h1         1 04P       0.078200
     23 H42          5.0700     2.7920    -0.1960 hn         1 04P       0.460400
     24 H431         3.2100     2.5210     2.6730 hn         1 04P       0.457467
     25 H432         4.6160     3.2580     2.1660 hn         1 04P       0.457467
     26 HXT         -1.3520    -1.1870     0.3830 ho         1 04P       0.423000
     27 H433         4.6780     1.8210     3.0110 hn         1 04P       0.457467
@<TRIPOS>BOND
     1     1     2 1   
     2     1    11 1   
     3     1    12 1   
     4     1    13 1   
     5     2     3 1   
     6     2     4 1   
     7     2    14 1   
     8     3     5 1   
     9     3    15 1   
    10     3    16 1   
    11     4     6 1   
    12     4    17 1   
    13     4    18 1   
    14     5     7 1   
    15     5     8 1   
    16     6     7 1   
    17     6    19 1   
    18     6    20 1   
    19     7    21 1   
    20     7    22 1   
    21     8     9 2   
    22     8    10 1   
    23     9    23 1   
    24    10    24 1   
    25    10    25 1   
    26    10    27 1   
    27    11    26 1   
@<TRIPOS>SUBSTRUCTURE
     1 04P         1 TEMP              0 ****  ****    0 ROOT
