@<TRIPOS>MOLECULE
04P
   27    27     1     0     0
SMALL
bcc


@<TRIPOS>ATOM
      1 C20          0.0000     0.0000     0.0000 c3         1 04P       0.223400
      2 C27          1.5300     0.0000     0.0000 c3         1 04P       0.017300
      3 C32          2.0410     0.0000     1.4450 c3         1 04P       0.009800
      4 C33          2.0410    -1.2510    -0.7170 c3         1 04P      -0.036400
      5 N37          3.5040    -0.1310     1.4280 nh         1 04P      -0.411600
      6 C38          3.5720    -1.2350    -0.7470 c3         1 04P      -0.030400
      7 C40          4.1060    -1.2500     0.6890 c3         1 04P       0.157800
      8 C41          4.2960     0.7760     2.0920 c2         1 04P       0.253100
      9 N42          3.7590     1.8230     2.6520 n2         1 04P      -0.645100
     10 N43          5.6560     0.5790     2.1640 nz         1 04P       0.189400
     11 H201        -0.3610    -0.0890    -1.0170 h1         1 04P       0.008200
     12 H202        -0.3610    -0.8370     0.5860 h1         1 04P       0.008200
     13 H27          1.8960     0.8820    -0.5110 hc         1 04P       0.030700
     14 H321         2.2050     0.9000     0.8640 h1         1 04P       0.085700
     15 H322         1.4760     0.3390     2.3040 h1         1 04P       0.085700
     16 H331         1.7010    -2.1330    -0.1890 hc         1 04P       0.040700
     17 H332         1.6620    -1.2630    -1.7320 hc         1 04P       0.040700
     18 H381         3.9130    -0.3380    -1.2490 hc         1 04P       0.033700
     19 H382         3.9310    -2.1110    -1.2740 hc         1 04P       0.033700
     20 H401         3.8380    -2.1850     1.1660 h1         1 04P       0.018200
     21 H402         5.1830    -1.1380     0.6760 h1         1 04P       0.018200
     22 H42          2.7700     1.9680     2.6010 hn         1 04P       0.386400
     23 H431         6.0570     1.2480     2.7910 hn         1 04P       0.224467
     24 H432         5.8420    -0.3450     2.4980 hn         1 04P       0.224467
     25 OXT         -0.4770     1.2210     0.5690 oh         1 04P      -0.610800
     26 HXT         -1.4100     1.2810     0.4480 ho         1 04P       0.418000
     27 H433         6.0580     0.6890     1.2540 hn         1 04P       0.224467
@<TRIPOS>BOND
     1     1     2 1   
     2     1    11 1   
     3     1    12 1   
     4     1    25 1   
     5     2     3 1   
     6     2     4 1   
     7     2    13 1   
     8     3     5 1   
     9     3    14 1   
    10     3    15 1   
    11     4     6 1   
    12     4    16 1   
    13     4    17 1   
    14     5     7 1   
    15     5     8 1   
    16     6     7 1   
    17     6    18 1   
    18     6    19 1   
    19     7    20 1   
    20     7    21 1   
    21     8     9 2   
    22     8    10 1   
    23     9    22 1   
    24    10    23 1   
    25    10    24 1   
    26    10    27 1   
    27    25    26 1   
@<TRIPOS>SUBSTRUCTURE
     1 04P         1 TEMP              0 ****  ****    0 ROOT
