@<TRIPOS>MOLECULE
molecule
   27    27     1     0     0
SMALL
bcc


@<TRIPOS>ATOM
      1 C20          0.0000     0.0000     0.0000 c3         1 04P       0.142400
      2 C27          1.5300     0.0000     0.0000 c3         1 04P      -0.008700
      3 C32          2.0410     0.0000     1.4450 c3         1 04P       0.087800
      4 C33          2.0410    -1.2510    -0.7170 c3         1 04P      -0.087400
      5 N37          3.5040    -0.1310     1.4280 nh         1 04P      -0.741600
      6 C38          3.5720    -1.2350    -0.7470 c3         1 04P      -0.092400
      7 C40          4.1060    -1.2500     0.6890 c3         1 04P       0.210800
      8 C41          4.2960     0.7760     2.0920 c2         1 04P       0.684100
      9 N42          3.7590     1.8230     2.6520 n2         1 04P      -0.796100
     10 N43          5.6560     0.5790     2.1640 nz         1 04P      -0.804600
     11 H201        -0.3610    -0.0890    -1.0170 h1         1 04P       0.044200
     12 H202        -0.3610    -0.8370     0.5860 h1         1 04P       0.044200
     13 H27          1.8960     0.8820    -0.5110 hc         1 04P       0.055700
     14 H321         2.2050     0.9000     0.8640 h1         1 04P       0.131700
     15 H322         1.4760     0.3400     2.3040 h1         1 04P       0.131700
     16 H331         1.7010    -2.1330    -0.1890 hc         1 04P       0.069200
     17 H332         1.6620    -1.2630    -1.7320 hc         1 04P       0.069200
     18 H381         3.9310    -2.1110    -1.2740 hc         1 04P       0.065700
     19 H382         3.9130    -0.3380    -1.2490 hc         1 04P       0.065700
     20 H401         3.8380    -2.1850     1.1660 h1         1 04P       0.045700
     21 H402         5.1830    -1.1380     0.6760 h1         1 04P       0.045700
     22 H42          4.3340     2.4840     3.1350 hn         1 04P       0.435400
     23 H431         5.8420    -0.3550     2.4710 hn         1 04P       0.465133
     24 H432         6.0530     1.2290     2.8130 hn         1 04P       0.465133
     25 OXT         -0.4770     1.2210     0.5690 oh         1 04P      -0.618800
     26 HXT         -1.4120     1.2730     0.4630 ho         1 04P       0.426000
     27 H433         6.0610     0.7160     1.2590 hn         1 04P       0.465133
@<TRIPOS>BOND
     1     1     2 1
     2     2     3 1
     3     2     4 1
     4     3     5 1
     5     4     6 1
     6     5     7 1
     7     5     8 1
     8     6     7 1
     9     8     9 2
    10     8    10 1
    11     1    11 1
    12     1    12 1
    13     2    13 1
    14     3    14 1
    15     3    15 1
    16     4    16 1
    17     4    17 1
    18     6    18 1
    19     6    19 1
    20     7    20 1
    21     7    21 1
    22     9    22 1
    23    10    23 1
    24    10    24 1
    25     1    25 1
    26    25    26 1
    27    27    10 1
@<TRIPOS>SUBSTRUCTURE
     1 04P         1 TEMP              0 ****  ****    0 ROOT
