@<TRIPOS>MOLECULE
04Q
   23    23     1     0     0
SMALL
bcc


@<TRIPOS>ATOM
      1 N5          -0.0460    -0.0020     0.2800 ny         1 04Q      -0.753000
      2 C9           1.4300    -0.1360     0.1440 c3         1 04Q       0.166100
      3 C10         -0.4840     0.4110     1.6390 c3         1 04Q      -0.083200
      4 C16          1.9620    -1.3800     0.7760 ca         1 04Q      -0.151300
      5 C17         -0.8430     1.9580     1.6520 c          1 04Q       0.927600
      6 C21          1.8860    -2.5980     0.0900 ca         1 04Q      -0.106000
      7 C22          2.5590    -1.3270     2.0400 ca         1 04Q      -0.106000
      8 O23         -1.0080     2.4550     2.7790 o          1 04Q      -0.764800
      9 O24         -0.9180     2.4930     0.5110 o          1 04Q      -0.764800
     10 C28          2.4050    -3.7560     0.6670 ca         1 04Q      -0.125000
     11 C29          3.0780    -2.4880     2.6120 ca         1 04Q      -0.125000
     12 C34          3.0000    -3.7010     1.9280 ca         1 04Q      -0.102000
     13 H91C         1.8970     0.7820     0.6090 hx         1 04Q       0.100200
     14 H92C         1.6700    -0.1360    -0.9590 hx         1 04Q       0.100200
     15 H101         0.3230     0.2070     2.3880 hx         1 04Q       0.085700
     16 H102        -1.4070    -0.1600     1.9160 hx         1 04Q       0.085700
     17 H21          1.4270    -2.6420    -0.9090 ha         1 04Q       0.140000
     18 H22          2.6220    -0.3700     2.5820 ha         1 04Q       0.140000
     19 H28          2.3460    -4.7120     0.1260 ha         1 04Q       0.145500
     20 H29          3.5490    -2.4440     3.6060 ha         1 04Q       0.145500
     21 H34          3.4100    -4.6160     2.3820 ha         1 04Q       0.144000
     22 H2          -0.4950    -0.8730     0.0040 hn         1 04Q       0.450800
     23 H52         -0.3650     0.7780    -0.3520 hn         1 04Q       0.450800
@<TRIPOS>BOND
     1     1     2 1   
     2     1     3 1   
     3     1    22 1   
     4     1    23 1   
     5     2     4 1   
     6     2    13 1   
     7     2    14 1   
     8     3     5 1   
     9     3    15 1   
    10     3    16 1   
    11     4     6 ar  
    12     4     7 ar  
    13     5     8 1   
    14     5     9 1   
    15     6    10 ar  
    16     6    17 1   
    17     7    11 ar  
    18     7    18 1   
    19    10    12 ar  
    20    10    19 1   
    21    11    12 ar  
    22    11    20 1   
    23    12    21 1   
@<TRIPOS>SUBSTRUCTURE
     1 04Q         1 TEMP              0 ****  ****    0 ROOT
