@<TRIPOS>MOLECULE
molecule
   22    22     1     0     0
SMALL
bcc


@<TRIPOS>ATOM
      1 N5           0.0000     0.0000     0.0000 n7         1 04Q      -0.790200
      2 C9           1.4690     0.0000     0.0000 c3         1 04Q       0.193100
      3 C10         -0.5280     0.0000     1.3700 c3         1 04Q       0.047800
      4 C16          1.9720     0.0000    -1.4200 ca         1 04Q      -0.057300
      5 C17         -2.0340    -0.0010     1.3300 c          1 04Q       0.892600
      6 C21          2.2020     1.1970    -2.0720 ca         1 04Q      -0.116500
      7 C22          2.2090    -1.1980    -2.0700 ca         1 04Q      -0.116500
      8 O23         -2.7370    -0.0020     2.4740 o          1 04Q      -0.845300
      9 O24         -2.6090    -0.0020     0.2680 o          1 04Q      -0.845300
     10 C28          2.6630     1.1970    -3.3750 ca         1 04Q      -0.136500
     11 C29          2.6700    -1.1970    -3.3730 ca         1 04Q      -0.136500
     12 C34          2.8950    -0.0000    -4.0260 ca         1 04Q      -0.145000
     13 H91C         1.8300     0.8840     0.5110 h1         1 04Q       0.022700
     14 H92C         1.8300    -0.8840     0.5110 h1         1 04Q       0.022700
     15 H101        -0.1800    -0.8840     1.8910 h1         1 04Q       0.018700
     16 H102        -0.1810     0.8850     1.8900 h1         1 04Q       0.018700
     17 H21          2.0200     2.1350    -1.5620 ha         1 04Q       0.132500
     18 H22          2.0320    -2.1360    -1.5580 ha         1 04Q       0.132500
     19 H28          2.8420     2.1360    -3.8860 ha         1 04Q       0.116500
     20 H29          2.8530    -2.1350    -3.8820 ha         1 04Q       0.116500
     21 H34          3.2560    -0.0000    -5.0470 ha         1 04Q       0.113000
     22 H2          -0.3340    -0.8090    -0.4860 hn         1 04Q       0.362800
@<TRIPOS>BOND
     1     1     2 1
     2     1     3 1
     3     2     4 1
     4     3     5 1
     5     4     6 ar
     6     4     7 ar
     7     5     8 1
     8     5     9 1
     9     6    10 ar
    10     7    11 ar
    11    10    12 ar
    12    11    12 ar
    13     2    13 1
    14     2    14 1
    15     3    15 1
    16     3    16 1
    17     6    17 1
    18     7    18 1
    19    10    19 1
    20    11    20 1
    21    12    21 1
    22     1    22 1
@<TRIPOS>SUBSTRUCTURE
     1 04Q         1 TEMP              0 ****  ****    0 ROOT
