@<TRIPOS>MOLECULE
04S
   17    17     1     0     0
SMALL
bcc


@<TRIPOS>ATOM
      1 N29         -0.0400    -0.4160     0.2870 nz         1 04S      -0.837600
      2 C30          1.3640     0.0210    -0.0060 c3         1 04S       0.072500
      3 C31          2.1750     0.3380     1.2960 c3         1 04S       0.141800
      4 N32          3.1650    -0.6980     1.4940 n7         1 04S      -0.790200
      5 C33          3.3600    -1.3930     0.2290 c3         1 04S       0.145800
      6 C34          2.1880    -1.0650    -0.7210 c3         1 04S      -0.133400
      7 HN29        -0.5300    -0.6240    -0.5890 hn         1 04S       0.459133
      8 H30          1.2770     0.9490    -0.6410 hx         1 04S       0.121700
      9 H31          1.5220     0.4810     2.1980 h1         1 04S       0.089200
     10 H31A         2.7240     1.3070     1.1090 h1         1 04S       0.089200
     11 HN32         2.9190    -1.3250     2.2360 hn         1 04S       0.378800
     12 H33          3.4580    -2.5010     0.3770 h1         1 04S       0.087200
     13 H33A         4.3240    -1.0190    -0.2200 h1         1 04S       0.087200
     14 H34          2.5780    -0.6600    -1.6900 hc         1 04S       0.086200
     15 H34A         1.5980    -1.9850    -0.9550 hc         1 04S       0.086200
     16 H2          -0.0340    -1.2600     0.8690 hn         1 04S       0.459133
     17 H293        -0.5380     0.3280     0.7860 hn         1 04S       0.459133
@<TRIPOS>BOND
     1     1     2 1   
     2     1     7 1   
     3     1    16 1   
     4     1    17 1   
     5     2     3 1   
     6     2     6 1   
     7     2     8 1   
     8     3     4 1   
     9     3     9 1   
    10     3    10 1   
    11     4     5 1   
    12     4    11 1   
    13     5     6 1   
    14     5    12 1   
    15     5    13 1   
    16     6    14 1   
    17     6    15 1   
@<TRIPOS>SUBSTRUCTURE
     1 04S         1 TEMP              0 ****  ****    0 ROOT
