@<TRIPOS>MOLECULE
molecule
   17    17     1     0     0
SMALL
bcc


@<TRIPOS>ATOM
      1 N29          0.0000     0.0000     0.0000 nz         1 04S      -0.805600
      2 C30          1.4690     0.0000     0.0000 c3         1 04S       0.080500
      3 C31          2.0030     0.0000     1.4440 c3         1 04S       0.126800
      4 N32          2.7700    -1.2520     1.6230 n7         1 04S      -0.788200
      5 C33          3.2240    -1.6470     0.2650 c3         1 04S       0.148800
      6 C34          2.0060    -1.3060    -0.6290 c3         1 04S      -0.104400
      7 HN29        -0.3340    -0.0630    -0.9410 hn         1 04S       0.458133
      8 H30          1.8500     0.8590    -0.5390 hx         1 04S       0.120700
      9 H31          1.1760     0.0280     2.1430 h1         1 04S       0.070200
     10 H31A         2.6520     0.8540     1.5970 h1         1 04S       0.070200
     11 HN32         3.5660    -1.0750     2.2030 hn         1 04S       0.390800
     12 H33          4.0890    -1.0650    -0.0320 h1         1 04S       0.077700
     13 H33A         3.4380    -2.7080     0.2290 h1         1 04S       0.077700
     14 H34          1.2610    -2.0910    -0.5730 hc         1 04S       0.081200
     15 H34A         2.3190    -1.1360    -1.6520 hc         1 04S       0.081200
     16 H2          -0.3340    -0.7840     0.5250 hn         1 04S       0.458133
     17 H293        -0.3340     0.8470     0.4160 hn         1 04S       0.458133
@<TRIPOS>BOND
     1     2     1 1
     2     1     7 1
     3     6     2 1
     4     2     3 1
     5     2     8 1
     6     4     3 1
     7     3     9 1
     8     3    10 1
     9     5     4 1
    10     4    11 1
    11     5     6 1
    12     5    12 1
    13     5    13 1
    14     6    14 1
    15     6    15 1
    16     1    16 1
    17    17     1 1
@<TRIPOS>SUBSTRUCTURE
     1 04S         1 TEMP              0 ****  ****    0 ROOT
