@<TRIPOS>MOLECULE
molecule
   39    40     1     0     0
SMALL
bcc


@<TRIPOS>ATOM
      1 C1           0.0000     0.0000     0.0000 ca         1 04T       0.010000
      2 C2           1.3810     0.0000     0.0000 ca         1 04T      -0.173000
      3 C3           2.0730     0.0000     1.2050 ca         1 04T       0.265600
      4 C4           1.3740     0.0010     2.4050 ca         1 04T      -0.193200
      5 C5          -0.0070     0.0020     2.3970 ca         1 04T       0.032000
      6 C6          -0.6930     0.0010     1.1970 ca         1 04T      -0.316500
      7 S7          -2.4550     0.0020     1.1920 sy         1 04T       1.192300
      8 O8          -2.8090     0.6070     2.4280 o          1 04T      -0.608300
      9 O9          -2.8030     0.6060    -0.0460 o          1 04T      -0.608300
     10 C10         -2.9080    -1.7550     1.1920 c3         1 04T      -0.225300
     11 N11          2.1090     0.0010     3.6910 no         1 04T       0.297200
     12 O12          1.4980    -0.0860     4.7410 o          1 04T      -0.191500
     13 O13          3.3230     0.0870     3.6980 o          1 04T      -0.191500
     14 N14          3.4710    -0.0010     1.2080 nu         1 04T      -0.713000
     15 C15          4.1680    -1.1850     1.4720 ca         1 04T       0.188600
     16 C16          5.5510    -1.1630     1.5960 ca         1 04T      -0.172000
     17 C17          6.2400    -2.3310     1.8560 ca         1 04T      -0.102500
     18 C18          5.5500    -3.5280     1.9920 ca         1 04T       0.018600
     19 C19          4.1680    -3.5510     1.8680 ca         1 04T      -0.102500
     20 C20          3.4770    -2.3810     1.6140 ca         1 04T      -0.172000
     21 N21          6.2490    -4.7130     2.2560 ns         1 04T      -0.477100
     22 C22          7.3700    -4.6830     3.0020 c          1 04T       0.654100
     23 C23          8.1800    -5.9390     3.1990 c3         1 04T      -0.171100
     24 O24          7.7280    -3.6440     3.5170 o          1 04T      -0.591100
     25 H1          -0.5410    -0.0000    -0.9380 ha         1 04T       0.163000
     26 H2           1.9230    -0.0010    -0.9380 ha         1 04T       0.161000
     27 H5          -0.5530     0.0030     3.3330 ha         1 04T       0.187000
     28 H10         -2.6370    -2.1980     0.2420 h1         1 04T       0.101367
     29 H10A        -2.3820    -2.2630     1.9910 h1         1 04T       0.101367
     30 H10B        -3.9770    -1.8520     1.3450 h1         1 04T       0.101367
     31 HN14         3.9720     0.8330     0.9740 hn         1 04T       0.465800
     32 H16          6.0900    -0.2290     1.4900 ha         1 04T       0.132500
     33 H17          7.3190    -2.3130     1.9530 ha         1 04T       0.146500
     34 H19          3.6290    -4.4850     1.9760 ha         1 04T       0.146500
     35 H20          2.3990    -2.3990     1.5170 ha         1 04T       0.132500
     36 HN21         5.8580    -5.5930     1.9810 hn         1 04T       0.320500
     37 H23          9.1010    -5.6970     3.7150 hc         1 04T       0.062700
     38 H23A         8.4110    -6.3740     2.2340 hc         1 04T       0.062700
     39 H23B         7.6100    -6.6470     3.7880 hc         1 04T       0.062700
@<TRIPOS>BOND
     1     1     2 ar
     2     1     6 ar
     3     1    25 1
     4     2     3 ar
     5     2    26 1
     6     3     4 ar
     7     3    14 1
     8     4     5 ar
     9     4    11 1
    10     5     6 ar
    11     5    27 1
    12     6     7 1
    13     7     8 2
    14     7     9 2
    15     7    10 1
    16    10    28 1
    17    10    29 1
    18    10    30 1
    19    11    12 1
    20    11    13 1
    21    14    15 1
    22    14    31 1
    23    15    16 ar
    24    15    20 ar
    25    16    17 ar
    26    16    32 1
    27    17    18 ar
    28    17    33 1
    29    18    19 ar
    30    18    21 1
    31    19    20 ar
    32    19    34 1
    33    20    35 1
    34    21    22 1
    35    21    36 1
    36    22    23 1
    37    22    24 2
    38    23    37 1
    39    23    38 1
    40    23    39 1
@<TRIPOS>SUBSTRUCTURE
     1 04T         1 TEMP              0 ****  ****    0 ROOT
