@<TRIPOS>MOLECULE
04T
   39    40     1     0     0
SMALL
bcc


@<TRIPOS>ATOM
      1 C1           0.2110     0.4340     0.2770 ca         1 04T       0.048000
      2 C2           1.5680     0.5560     0.4530 ca         1 04T      -0.244000
      3 C3           2.2110     0.1380     1.6620 ca         1 04T       0.318600
      4 C4           1.3630    -0.4430     2.6650 ca         1 04T      -0.297200
      5 C5          -0.0220    -0.5490     2.4520 ca         1 04T       0.093000
      6 C6          -0.6210    -0.1060     1.2790 ca         1 04T      -0.456500
      7 S7          -2.2670    -0.2570     1.0210 sy         1 04T       1.408300
      8 O8          -2.7490    -1.4050     1.6610 o          1 04T      -0.656300
      9 O9          -2.5420    -0.1020    -0.3460 o          1 04T      -0.656300
     10 C10         -2.8240     1.1080     1.8520 c3         1 04T      -0.361300
     11 N11          1.8770    -0.9550     3.9550 no         1 04T       0.327200
     12 O12          3.0520    -1.1870     4.0980 o          1 04T      -0.219000
     13 O13          1.0950    -1.1410     4.8480 o          1 04T      -0.219000
     14 N14          3.5540     0.3180     1.8440 nu         1 04T      -0.624000
     15 C15          4.4080     0.9430     0.9050 ca         1 04T       0.087600
     16 C16          5.5710     0.2740     0.4670 ca         1 04T      -0.110500
     17 C17          6.4590     0.8970    -0.3960 ca         1 04T      -0.156500
     18 C18          6.2200     2.2120    -0.8650 ca         1 04T       0.073600
     19 C19          5.0460     2.8660    -0.4370 ca         1 04T      -0.156500
     20 C20          4.1640     2.2490     0.4410 ca         1 04T      -0.110500
     21 N21          7.1200     2.7920    -1.7670 ns         1 04T      -0.485100
     22 C22          7.5470     4.1180    -1.7940 c          1 04T       0.665100
     23 C23          7.0350     5.1280    -0.8070 c3         1 04T      -0.169100
     24 O24          8.3770     4.4230    -2.6720 o          1 04T      -0.587100
     25 H1          -0.2490     0.7500    -0.6800 ha         1 04T       0.169000
     26 H2           2.1830     0.9660    -0.3650 ha         1 04T       0.162000
     27 H5          -0.6560    -1.0110     3.2390 ha         1 04T       0.185000
     28 H10         -2.4510     2.0690     1.4210 h1         1 04T       0.115033
     29 H10A        -3.9420     1.1670     1.8230 h1         1 04T       0.115033
     30 H10B        -2.5410     1.1110     2.9330 h1         1 04T       0.115033
     31 HN14         4.0190    -0.1470     2.6010 hn         1 04T       0.482800
     32 H16          5.7900    -0.7490     0.8140 ha         1 04T       0.149000
     33 H17          7.3590     0.3490    -0.7190 ha         1 04T       0.147500
     34 H19          4.8060     3.8770    -0.8020 ha         1 04T       0.147500
     35 H20          3.2640     2.7960     0.7670 ha         1 04T       0.149000
     36 HN21         7.6050     2.1610    -2.3710 hn         1 04T       0.330500
     37 H23          6.8100     4.6720     0.1860 hc         1 04T       0.072700
     38 H23A         7.8150     5.9190    -0.6790 hc         1 04T       0.072700
     39 H23B         6.1100     5.6050    -1.2150 hc         1 04T       0.072700
@<TRIPOS>BOND
     1     1     2 ar  
     2     1     6 ar  
     3     1    25 1   
     4     2     3 ar  
     5     2    26 1   
     6     3     4 ar  
     7     3    14 1   
     8     4     5 ar  
     9     4    11 1   
    10     5     6 ar  
    11     5    27 1   
    12     6     7 1   
    13     7     8 2   
    14     7     9 2   
    15     7    10 1   
    16    10    28 1   
    17    10    29 1   
    18    10    30 1   
    19    11    12 1   
    20    11    13 1   
    21    14    15 1   
    22    14    31 1   
    23    15    16 ar  
    24    15    20 ar  
    25    16    17 ar  
    26    16    32 1   
    27    17    18 ar  
    28    17    33 1   
    29    18    19 ar  
    30    18    21 1   
    31    19    20 ar  
    32    19    34 1   
    33    20    35 1   
    34    21    22 1   
    35    21    36 1   
    36    22    23 1   
    37    22    24 2   
    38    23    37 1   
    39    23    38 1   
    40    23    39 1   
@<TRIPOS>SUBSTRUCTURE
     1 04T         1 TEMP              0 ****  ****    0 ROOT
