@<TRIPOS>MOLECULE
04W
   61    62     1     0     0
SMALL
bcc


@<TRIPOS>ATOM
      1 CAA          0.0000     0.0000     0.0000 c3         1 04W       0.005900
      2 OAB         14.7150     5.2300    12.0080 o          1 04W      -0.867300
      3 OAC         16.5850     1.0890    16.4110 o          1 04W      -0.480000
      4 OAD         14.0830     3.8370    10.3990 o          1 04W      -0.867300
      5 OAE         16.4680     3.1830    16.1800 o          1 04W      -0.480000
      6 CAF         13.7290     0.0010     6.3810 ca         1 04W      -0.066000
      7 CAG         14.2560     0.0010     7.6590 ca         1 04W      -0.111000
      8 CAH         12.3590     0.0000     6.1980 ca         1 04W      -0.213000
      9 CAI         15.5380     0.6040    13.8780 ca         1 04W       0.003000
     10 CAJ         15.0140     0.4220    12.6140 ca         1 04W      -0.274000
     11 CAK         12.0440    -0.0110     8.5780 ca         1 04W      -0.109000
     12 CAL         15.4070     2.9830    13.6200 ca         1 04W       0.056000
     13 CAM          1.5300     0.0000     0.0000 c3         1 04W      -0.028400
     14 CAN          2.0400     0.0000     1.4430 c3         1 04W      -0.030400
     15 CAO          3.5700    -0.0000     1.4430 c3         1 04W      -0.029400
     16 CAP          4.0800     0.0000     2.8860 c3         1 04W      -0.029400
     17 CAQ          5.6100    -0.0000     2.8860 c3         1 04W      -0.029400
     18 CAR          6.1200     0.0000     4.3290 c3         1 04W      -0.028400
     19 CAS          7.6500    -0.0000     4.3290 c3         1 04W      -0.024400
     20 CAT          8.1590     0.0000     5.7710 c3         1 04W      -0.036400
     21 CAU          9.6900    -0.0000     5.7710 c3         1 04W       0.202400
     22 OAW         10.1660     0.0000     7.1180 os         1 04W      -0.306900
     23 OAX         14.1700     1.3430    10.5910 os         1 04W      -0.218900
     24 CAZ         13.4150    -0.0050     8.7570 ca         1 04W      -0.046300
     25 CBA         11.5130     0.0010     7.2970 ca         1 04W       0.144100
     26 CBB         15.7330     1.8800    14.3790 ca         1 04W      -0.531200
     27 CBC         14.6850     1.5200    11.8340 ca         1 04W       0.220100
     28 CBD         14.8870     2.8140    12.3340 ca         1 04W      -0.157600
     29 HAA         -0.3610     0.0000    -1.0210 hc         1 04W      -0.000967
     30 HAAA        -0.3610    -0.8850     0.5100 hc         1 04W      -0.000967
     31 HAAB        -0.3610     0.8840     0.5110 hc         1 04W      -0.000967
     32 HAF         14.3900     0.0030     5.5230 ha         1 04W       0.094000
     33 HAG         15.3300     0.0040     7.8010 ha         1 04W       0.109000
     34 HAH         11.9470     0.0050     5.1960 ha         1 04W       0.111000
     35 HAI         15.7950    -0.2570    14.4830 ha         1 04W       0.110000
     36 HAJ         14.8640    -0.5800    12.2290 ha         1 04W       0.114000
     37 HAK         11.3860    -0.0130     9.4380 ha         1 04W       0.120000
     38 HAL         15.5610     3.9790    14.0160 ha         1 04W       0.159000
     39 HAM          1.8910     0.8850    -0.5110 hc         1 04W       0.011200
     40 HAMA         1.8910    -0.8850    -0.5110 hc         1 04W       0.011200
     41 HAN          1.6790     0.8850     1.9530 hc         1 04W       0.014700
     42 HANA         1.6790    -0.8850     1.9530 hc         1 04W       0.014700
     43 HAO          3.9310    -0.8850     0.9320 hc         1 04W       0.014200
     44 HAOA         3.9310     0.8850     0.9320 hc         1 04W       0.014200
     45 HAP          3.7190    -0.8850     3.3960 hc         1 04W       0.014700
     46 HAPA         3.7190     0.8850     3.3960 hc         1 04W       0.014700
     47 HAQ          5.9710     0.8850     2.3750 hc         1 04W       0.014200
     48 HAQA         5.9710    -0.8850     2.3750 hc         1 04W       0.014200
     49 HAR          5.7580    -0.8850     4.8390 hc         1 04W       0.016700
     50 HARA         5.7580     0.8850     4.8390 hc         1 04W       0.016700
     51 HAS          8.0110     0.8850     3.8180 hc         1 04W       0.013700
     52 HASA         8.0110    -0.8850     3.8180 hc         1 04W       0.013700
     53 HAT          7.7980     0.8850     6.2820 hc         1 04W       0.024700
     54 HATA         7.7980    -0.8850     6.2820 hc         1 04W       0.024700
     55 HAU         10.0510    -0.8850     5.2610 h1         1 04W      -0.000300
     56 HAUA        10.0510     0.8840     5.2600 h1         1 04W      -0.000300
     57 HAV         14.9500    -0.5110    10.1420 h1         1 04W      -0.002800
     58 HAVA        13.3160    -0.5190    10.8200 h1         1 04W      -0.002800
     59 CAY         14.5350     3.9880    11.5160 c          1 04W       0.971200
     60 CAV         13.9930    -0.0050    10.1480 c3         1 04W       0.236700
     61 NBE         16.2950     2.0610    15.7370 no         1 04W       1.064200
@<TRIPOS>BOND
     1     1    13 1   
     2     1    29 1   
     3     1    30 1   
     4     1    31 1   
     5     2    59 1   
     6     3    61 1   
     7     4    59 1   
     8     5    61 1   
     9     6     7 ar  
    10     6     8 ar  
    11     6    32 1   
    12     7    24 ar  
    13     7    33 1   
    14     8    25 ar  
    15     8    34 1   
    16     9    10 ar  
    17     9    26 ar  
    18     9    35 1   
    19    10    27 ar  
    20    10    36 1   
    21    11    24 ar  
    22    11    25 ar  
    23    11    37 1   
    24    12    26 ar  
    25    12    28 ar  
    26    12    38 1   
    27    13    14 1   
    28    13    39 1   
    29    13    40 1   
    30    14    15 1   
    31    14    41 1   
    32    14    42 1   
    33    15    16 1   
    34    15    43 1   
    35    15    44 1   
    36    16    17 1   
    37    16    45 1   
    38    16    46 1   
    39    17    18 1   
    40    17    47 1   
    41    17    48 1   
    42    18    19 1   
    43    18    49 1   
    44    18    50 1   
    45    19    20 1   
    46    19    51 1   
    47    19    52 1   
    48    20    21 1   
    49    20    53 1   
    50    20    54 1   
    51    21    22 1   
    52    21    55 1   
    53    21    56 1   
    54    22    25 1   
    55    23    27 1   
    56    23    60 1   
    57    24    60 1   
    58    26    61 1   
    59    27    28 ar  
    60    28    59 1   
    61    57    60 1   
    62    58    60 1   
@<TRIPOS>SUBSTRUCTURE
     1 04W         1 TEMP              0 ****  ****    0 ROOT
