@<TRIPOS>MOLECULE
molecule
   61    62     1     0     0
SMALL
bcc


@<TRIPOS>ATOM
      1 CAA          0.0000     0.0000     0.0000 c3         1 04W      -0.092100
      2 OAB         14.7150     5.2300    12.0080 o          1 04W      -0.814800
      3 OAC         16.5850     1.0890    16.4110 o          1 04W      -0.239500
      4 OAD         14.0830     3.8370    10.3990 o          1 04W      -0.814800
      5 OAE         16.4680     3.1830    16.1800 o          1 04W      -0.239500
      6 CAF         13.7290     0.0010     6.3810 ca         1 04W      -0.099000
      7 CAG         14.2560     0.0010     7.6590 ca         1 04W      -0.134000
      8 CAH         12.3590     0.0000     6.1980 ca         1 04W      -0.219000
      9 CAI         15.5380     0.6040    13.8780 ca         1 04W      -0.057000
     10 CAJ         15.0140     0.4220    12.6140 ca         1 04W      -0.266000
     11 CAK         12.0440    -0.0110     8.5780 ca         1 04W      -0.126000
     12 CAL         15.4070     2.9830    13.6200 ca         1 04W      -0.007000
     13 CAM          1.5300     0.0000     0.0000 c3         1 04W      -0.084400
     14 CAN          2.0400     0.0000     1.4430 c3         1 04W      -0.081400
     15 CAO          3.5700    -0.0000     1.4430 c3         1 04W      -0.082400
     16 CAP          4.0800     0.0000     2.8860 c3         1 04W      -0.081400
     17 CAQ          5.6100    -0.0000     2.8860 c3         1 04W      -0.082400
     18 CAR          6.1200     0.0000     4.3290 c3         1 04W      -0.080400
     19 CAS          7.6500    -0.0000     4.3290 c3         1 04W      -0.080400
     20 CAT          8.1590     0.0000     5.7710 c3         1 04W      -0.082400
     21 CAU          9.6900    -0.0000     5.7710 c3         1 04W       0.140400
     22 OAW         10.1660     0.0000     7.1180 os         1 04W      -0.331900
     23 OAX         14.1700     1.3430    10.5910 os         1 04W      -0.244900
     24 CAZ         13.4150    -0.0050     8.7570 ca         1 04W      -0.038300
     25 CBA         11.5130     0.0010     7.2970 ca         1 04W       0.136100
     26 CBB         15.7330     1.8800    14.3790 ca         1 04W      -0.223200
     27 CBC         14.6850     1.5200    11.8340 ca         1 04W       0.194100
     28 CBD         14.8870     2.8140    12.3340 ca         1 04W      -0.133600
     29 HAA         -0.3610     0.0000    -1.0210 hc         1 04W       0.031367
     30 HAAA        -0.3610    -0.8850     0.5100 hc         1 04W       0.031367
     31 HAAB        -0.3610     0.8840     0.5110 hc         1 04W       0.031367
     32 HAF         14.3900     0.0030     5.5230 ha         1 04W       0.124000
     33 HAG         15.3300     0.0040     7.8010 ha         1 04W       0.135000
     34 HAH         11.9470     0.0050     5.1960 ha         1 04W       0.125000
     35 HAI         15.7950    -0.2570    14.4830 ha         1 04W       0.141000
     36 HAJ         14.8640    -0.5800    12.2290 ha         1 04W       0.128000
     37 HAK         11.3860    -0.0130     9.4380 ha         1 04W       0.148000
     38 HAL         15.5610     3.9790    14.0160 ha         1 04W       0.194000
     39 HAM          1.8910     0.8850    -0.5110 hc         1 04W       0.039200
     40 HAMA         1.8910    -0.8850    -0.5110 hc         1 04W       0.039200
     41 HAN          1.6790     0.8850     1.9530 hc         1 04W       0.041200
     42 HANA         1.6790    -0.8850     1.9530 hc         1 04W       0.041200
     43 HAO          3.9310    -0.8850     0.9320 hc         1 04W       0.040700
     44 HAOA         3.9310     0.8850     0.9320 hc         1 04W       0.040700
     45 HAP          3.7190    -0.8850     3.3960 hc         1 04W       0.041700
     46 HAPA         3.7190     0.8850     3.3960 hc         1 04W       0.041700
     47 HAQ          5.9710     0.8850     2.3750 hc         1 04W       0.040700
     48 HAQA         5.9710    -0.8850     2.3750 hc         1 04W       0.040700
     49 HAR          5.7580    -0.8850     4.8390 hc         1 04W       0.043700
     50 HARA         5.7580     0.8850     4.8390 hc         1 04W       0.043700
     51 HAS          8.0110     0.8850     3.8180 hc         1 04W       0.041200
     52 HASA         8.0110    -0.8850     3.8180 hc         1 04W       0.041200
     53 HAT          7.7980     0.8850     6.2820 hc         1 04W       0.055700
     54 HATA         7.7980    -0.8850     6.2820 hc         1 04W       0.055700
     55 HAU         10.0510    -0.8850     5.2610 h1         1 04W       0.032700
     56 HAUA        10.0510     0.8840     5.2600 h1         1 04W       0.032700
     57 HAV         14.9500    -0.5110    10.1420 h1         1 04W       0.032700
     58 HAVA        13.3160    -0.5190    10.8200 h1         1 04W       0.032700
     59 CAY         14.5350     3.9880    11.5160 c          1 04W       0.881200
     60 CAV         13.9930    -0.0050    10.1480 c3         1 04W       0.174700
     61 NBE         16.2950     2.0610    15.7370 no         1 04W       0.302200
@<TRIPOS>BOND
     1     1    13 1
     2     1    29 1
     3     1    30 1
     4     1    31 1
     5     2    59 1
     6     4    59 1
     7     5    61 1
     8     6     7 ar
     9     6    32 1
    10     7    24 ar
    11     7    33 1
    12     8     6 ar
    13     8    25 ar
    14     8    34 1
    15     9    10 ar
    16     9    35 1
    17    10    36 1
    18    11    24 ar
    19    11    37 1
    20    12    28 ar
    21    12    26 ar
    22    12    38 1
    23    13    14 1
    24    13    39 1
    25    13    40 1
    26    14    15 1
    27    14    41 1
    28    14    42 1
    29    15    16 1
    30    15    43 1
    31    15    44 1
    32    16    17 1
    33    16    45 1
    34    16    46 1
    35    17    18 1
    36    17    47 1
    37    17    48 1
    38    18    19 1
    39    18    49 1
    40    18    50 1
    41    19    20 1
    42    19    51 1
    43    19    52 1
    44    20    21 1
    45    20    53 1
    46    20    54 1
    47    21    22 1
    48    21    55 1
    49    21    56 1
    50    60    23 1
    51    60    57 1
    52    60    58 1
    53    22    25 1
    54    59    28 1
    55    24    60 1
    56    25    11 ar
    57    26     9 ar
    58    27    10 ar
    59    27    23 1
    60    28    27 ar
    61    61     3 1
    62    61    26 1
@<TRIPOS>SUBSTRUCTURE
     1 04W         1 TEMP              0 ****  ****    0 ROOT
