@<TRIPOS>MOLECULE
04W
   61    62     1     0     0
SMALL
bcc


@<TRIPOS>ATOM
      1 CAA          0.2090    -1.0970     1.3050 c3         1 04W      -0.093100
      2 OAB          0.0560    16.6280     3.6830 o          1 04W      -0.809800
      3 OAC          5.4950    15.7200     0.2220 o          1 04W      -0.242500
      4 OAD         -0.4990    14.4800     3.3880 o          1 04W      -0.809800
      5 OAE          3.7170    16.7500    -0.1930 o          1 04W      -0.242500
      6 CAF          0.1890    10.5120     3.0070 ca         1 04W      -0.117000
      7 CAG          0.6750    11.5560     3.7950 ca         1 04W      -0.106000
      8 CAH          0.7930     9.2580     3.0360 ca         1 04W      -0.162000
      9 CAI          4.4640    14.4590     2.4500 ca         1 04W      -0.070000
     10 CAJ          3.8780    13.8810     3.5680 ca         1 04W      -0.217000
     11 CAK          2.4080    10.0960     4.6580 ca         1 04W      -0.139000
     12 CAL          2.3940    15.6870     2.0210 ca         1 04W      -0.032000
     13 CAM          1.5500    -1.0960     0.6180 c3         1 04W      -0.077400
     14 CAN          2.4960    -0.0500     1.1710 c3         1 04W      -0.077400
     15 CAO          2.0610     1.3740     0.8790 c3         1 04W      -0.078400
     16 CAP          1.4500     2.0470     2.0910 c3         1 04W      -0.079400
     17 CAQ          0.9640     3.4490     1.7900 c3         1 04W      -0.077400
     18 CAR          2.0760     4.4770     1.7420 c3         1 04W      -0.079400
     19 CAS          2.5260     4.9040     3.1230 c3         1 04W      -0.080400
     20 CAT          3.6290     5.9400     3.0750 c3         1 04W      -0.080400
     21 CAU          3.1100     7.3390     2.7930 c3         1 04W       0.131400
     22 OAW          2.4870     7.8010     4.0000 os         1 04W      -0.354900
     23 OAX          1.9610    13.7490     5.0760 os         1 04W      -0.296900
     24 CAZ          1.7820    11.3460     4.6240 ca         1 04W      -0.119300
     25 CBA          1.9040     9.0590     3.8660 ca         1 04W       0.071100
     26 CBB          3.7210    15.3690     1.6780 ca         1 04W      -0.219200
     27 CBC          2.5530    14.2000     3.9130 ca         1 04W       0.170100
     28 CBD          1.7950    15.0930     3.1290 ca         1 04W      -0.138600
     29 HAA         -0.3250    -0.1310     1.1270 hc         1 04W       0.032700
     30 HAAA        -0.4270    -1.9280     0.9140 hc         1 04W       0.032700
     31 HAAB         0.3290    -1.2310     2.4070 hc         1 04W       0.032700
     32 HAF         -0.6820    10.6890     2.3570 ha         1 04W       0.140000
     33 HAG          0.1970    12.5640     3.7560 ha         1 04W       0.230000
     34 HAH          0.4080     8.4310     2.4230 ha         1 04W       0.127000
     35 HAI          5.5010    14.2110     2.1750 ha         1 04W       0.147000
     36 HAJ          4.4620    13.1740     4.1720 ha         1 04W       0.131000
     37 HAK          3.2790     9.9150     5.3040 ha         1 04W       0.132000
     38 HAL          1.8110    16.4080     1.4210 ha         1 04W       0.177000
     39 HAM          2.0250    -2.1070     0.7360 hc         1 04W       0.034200
     40 HAMA         1.4060    -0.9260    -0.4820 hc         1 04W       0.034200
     41 HAN          3.5090    -0.2210     0.7170 hc         1 04W       0.037200
     42 HANA         2.6050    -0.1980     2.2780 hc         1 04W       0.037200
     43 HAO          1.3220     1.3830     0.0350 hc         1 04W       0.039700
     44 HAOA         2.9500     1.9700     0.5400 hc         1 04W       0.039700
     45 HAP          2.2030     2.0780     2.9220 hc         1 04W       0.039200
     46 HAPA         0.5850     1.4280     2.4520 hc         1 04W       0.039200
     47 HAQ          0.4250     3.4490     0.8060 hc         1 04W       0.039700
     48 HAQA         0.2200     3.7520     2.5740 hc         1 04W       0.039700
     49 HAR          1.7110     5.3790     1.1810 hc         1 04W       0.038200
     50 HARA         2.9500     4.0640     1.1710 hc         1 04W       0.038200
     51 HAS          2.8940     4.0050     3.6860 hc         1 04W       0.047200
     52 HASA         1.6560     5.3230     3.6950 hc         1 04W       0.047200
     53 HAT          4.3740     5.6760     2.2800 hc         1 04W       0.047700
     54 HATA         4.1650     5.9500     4.0610 hc         1 04W       0.047700
     55 HAU          3.9560     8.0300     2.5340 h1         1 04W       0.034200
     56 HAUA         2.3630     7.3400     1.9570 h1         1 04W       0.034200
     57 HAV          3.3940    12.3350     5.6780 h1         1 04W       0.052700
     58 HAVA         1.7600    12.3800     6.5100 h1         1 04W       0.052700
     59 CAY          0.3320    15.4270     3.4380 c          1 04W       0.930200
     60 CAV          2.2890    12.4330     5.5140 c3         1 04W       0.178700
     61 NBE          4.3490    15.9880     0.4930 no         1 04W       0.317200
@<TRIPOS>BOND
     1     1    13 1   
     2     1    29 1   
     3     1    30 1   
     4     1    31 1   
     5     2    59 1   
     6     3    61 1   
     7     4    59 1   
     8     5    61 1   
     9     6     7 ar  
    10     6     8 ar  
    11     6    32 1   
    12     7    24 ar  
    13     7    33 1   
    14     8    25 ar  
    15     8    34 1   
    16     9    10 ar  
    17     9    26 ar  
    18     9    35 1   
    19    10    27 ar  
    20    10    36 1   
    21    11    24 ar  
    22    11    25 ar  
    23    11    37 1   
    24    12    26 ar  
    25    12    28 ar  
    26    12    38 1   
    27    13    14 1   
    28    13    39 1   
    29    13    40 1   
    30    14    15 1   
    31    14    41 1   
    32    14    42 1   
    33    15    16 1   
    34    15    43 1   
    35    15    44 1   
    36    16    17 1   
    37    16    45 1   
    38    16    46 1   
    39    17    18 1   
    40    17    47 1   
    41    17    48 1   
    42    18    19 1   
    43    18    49 1   
    44    18    50 1   
    45    19    20 1   
    46    19    51 1   
    47    19    52 1   
    48    20    21 1   
    49    20    53 1   
    50    20    54 1   
    51    21    22 1   
    52    21    55 1   
    53    21    56 1   
    54    22    25 1   
    55    23    27 1   
    56    23    60 1   
    57    24    60 1   
    58    26    61 1   
    59    27    28 ar  
    60    28    59 1   
    61    57    60 1   
    62    58    60 1   
@<TRIPOS>SUBSTRUCTURE
     1 04W         1 TEMP              0 ****  ****    0 ROOT
