@<TRIPOS>MOLECULE
molecule
   44    46     1     0     0
SMALL
bcc


@<TRIPOS>ATOM
      1 C1           0.0000     0.0000     0.0000 ca         1 04Z      -0.193000
      2 N1           5.4090    -1.0950     4.6500 nc         1 04Z      -0.792000
      3 O1          10.5130    -2.8550     8.3490 o          1 04Z      -0.524300
      4 S1           4.2420    -1.4180     2.4750 ss         1 04Z      -0.097300
      5 C2           1.3880     0.0000     0.0000 ca         1 04Z       0.140100
      6 N2           3.9190     0.1120     6.0490 nv         1 04Z      -1.022500
      7 O2          12.2230    -2.8600     6.5260 o          1 04Z      -0.524300
      8 S2          11.0100    -3.3250     7.1030 sy         1 04Z       1.220200
      9 C3           2.0810     0.0000     1.1990 ca         1 04Z      -0.149000
     10 N3           6.7550    -2.2930     3.1080 nu         1 04Z      -0.729300
     11 O3           1.5990     0.4740     4.6870 o          1 04Z      -0.523100
     12 C4          -0.0150     0.0060     2.3960 ca         1 04Z      -0.107000
     13 N4          11.1600    -4.9680     7.2490 nz         1 04Z      -0.805500
     14 C5          -0.6960     0.0070     1.1950 ca         1 04Z      -0.092000
     15 O6           2.0670    -0.0010    -1.1770 os         1 04Z      -0.332900
     16 C7           1.2870    -0.0010    -2.3750 c3         1 04Z       0.126700
     17 C10          1.3800     0.0000     2.4050 ca         1 04Z      -0.134600
     18 C11          2.1150    -0.0010     3.6900 c          1 04Z       0.631300
     19 C12          3.4090    -0.5480     3.7610 cd         1 04Z      -0.297000
     20 C13          4.2570    -0.5020     4.8530 cc         1 04Z       0.741200
     21 C14          5.6050    -1.6350     3.4810 cd         1 04Z       0.666300
     22 C15          7.7590    -2.5370     4.0500 ca         1 04Z       0.266600
     23 C16          7.4360    -2.6560     5.3950 ca         1 04Z      -0.168000
     24 C17          8.4300    -2.8960     6.3240 ca         1 04Z      -0.005000
     25 C18          9.7450    -3.0190     5.9150 ca         1 04Z      -0.377500
     26 C19         10.0700    -2.9010     4.5770 ca         1 04Z      -0.005000
     27 C20          9.0810    -2.6660     3.6420 ca         1 04Z      -0.168000
     28 H1          -0.5400     0.0000    -0.9390 ha         1 04Z       0.144000
     29 HN2          4.4470     0.8970     6.3740 hn         1 04Z       0.455800
     30 HN2A         3.1280    -0.2090     6.5700 hn         1 04Z       0.455800
     31 H3           3.1650    -0.0020     1.2000 ha         1 04Z       0.143000
     32 HN3          6.8870    -2.5690     2.1550 hn         1 04Z       0.477800
     33 H4          -0.5630     0.0090     3.3300 ha         1 04Z       0.154000
     34 HN4         11.8790    -5.1800     7.9120 hn         1 04Z       0.489800
     35 HN4A        10.2920    -5.3550     7.5620 hn         1 04Z       0.489800
     36 H5          -1.7790     0.0090     1.1890 ha         1 04Z       0.143000
     37 H7           0.6630     0.8840    -2.4000 h1         1 04Z       0.046367
     38 H7A          0.6620    -0.8850    -2.4000 h1         1 04Z       0.046367
     39 H7B          1.9470    -0.0010    -3.2350 h1         1 04Z       0.046367
     40 H16          6.4060    -2.5590     5.7160 ha         1 04Z       0.181000
     41 H17          8.1780    -2.9880     7.3730 ha         1 04Z       0.155000
     42 H19         11.1010    -3.0020     4.2600 ha         1 04Z       0.155000
     43 H20          9.3360    -2.5740     2.5930 ha         1 04Z       0.181000
     44 H43         11.4150    -5.3590     6.3640 hn         1 04Z       0.489800
@<TRIPOS>BOND
     1     5     1 ar
     2    14     1 ar
     3     1    28 1
     4    20     2 1
     5     2    21 2
     6     3     8 2
     7    19     4 1
     8    21     4 1
     9     9     5 ar
    10     5    15 1
    11     6    20 1
    12     6    29 1
    13     6    30 1
    14     8     7 2
    15    25     8 1
    16     8    13 1
    17    17     9 ar
    18     9    31 1
    19    21    10 1
    20    10    22 1
    21    10    32 1
    22    11    18 2
    23    17    12 ar
    24    12    14 ar
    25    12    33 1
    26    13    34 1
    27    13    35 1
    28    14    36 1
    29    15    16 1
    30    16    37 1
    31    16    38 1
    32    16    39 1
    33    18    17 1
    34    18    19 1
    35    20    19 2
    36    22    27 ar
    37    22    23 ar
    38    23    24 ar
    39    23    40 1
    40    24    25 ar
    41    24    41 1
    42    26    25 ar
    43    27    26 ar
    44    26    42 1
    45    27    43 1
    46    44    13 1
@<TRIPOS>SUBSTRUCTURE
     1 04Z         1 TEMP              0 ****  ****    0 ROOT
