@<TRIPOS>MOLECULE
04Z
   44    46     1     0     0
SMALL
bcc


@<TRIPOS>ATOM
      1 C1           1.6580     0.1540    -1.0140 ca         1 04Z      -0.183000
      2 N1           0.4210    -2.6420     5.5890 nc         1 04Z      -0.714000
      3 O1          -4.1650    -6.7800     9.0750 o          1 04Z      -0.580800
      4 S1           0.4440    -2.4320     2.9940 ss         1 04Z       0.054700
      5 C2           2.6540     0.7360    -0.2200 ca         1 04Z       0.132100
      6 N2           0.9830    -0.3750     6.2370 nv         1 04Z      -0.924500
      7 O2          -3.3720    -8.8670     8.1840 o          1 04Z      -0.580800
      8 S2          -3.6340    -7.5210     8.0400 sy         1 04Z       1.519200
      9 C3           2.5370     0.7510     1.1850 ca         1 04Z      -0.103000
     10 N3          -0.1410    -4.6860     4.3870 nu         1 04Z      -0.679300
     11 O3           1.6430     1.1600     3.9300 o          1 04Z      -0.543100
     12 C4           0.4160    -0.4120     0.9880 ca         1 04Z      -0.166000
     13 N4          -5.2550    -7.6620     6.9310 nz         1 04Z      -0.779500
     14 C5           0.5400    -0.4100    -0.3990 ca         1 04Z      -0.091000
     15 O6           3.8020     1.3220    -0.7060 os         1 04Z      -0.317900
     16 C7           3.9180     1.4080    -2.1240 c3         1 04Z       0.109700
     17 C10          1.4220     0.1630     1.7790 ca         1 04Z      -0.135600
     18 C11          1.3210     0.1680     3.2600 c          1 04Z       0.638300
     19 C12          0.8700    -1.0720     3.8670 cd         1 04Z      -0.406000
     20 C13          0.7840    -1.3170     5.2700 cc         1 04Z       0.696200
     21 C14          0.2210    -3.3250     4.4410 cd         1 04Z       0.560300
     22 C15         -0.9670    -5.3180     5.2730 ca         1 04Z       0.321600
     23 C16         -1.8530    -4.6270     6.1600 ca         1 04Z      -0.215000
     24 C17         -2.6910    -5.3240     6.9890 ca         1 04Z       0.051500
     25 C18         -2.7410    -6.7460     7.0130 ca         1 04Z      -0.660500
     26 C19         -1.8670    -7.4220     6.1190 ca         1 04Z       0.051500
     27 C20         -1.0180    -6.7540     5.2780 ca         1 04Z      -0.215000
     28 H1           1.7420     0.1450    -2.1100 ha         1 04Z       0.149000
     29 HN2          1.3470     0.5080     5.9490 hn         1 04Z       0.460300
     30 HN2A         1.0840    -0.6530     7.1830 hn         1 04Z       0.460300
     31 H3           3.3170     1.2310     1.7950 ha         1 04Z       0.172000
     32 HN3          0.4720    -5.2560     3.8360 hn         1 04Z       0.467800
     33 H4          -0.4970    -0.8180     1.4510 ha         1 04Z       0.134000
     34 HN4         -6.0370    -7.2120     7.3990 hn         1 04Z       0.445133
     35 HN4A        -5.4940    -8.6380     6.7860 hn         1 04Z       0.445133
     36 H5          -0.2540    -0.8500    -1.0200 ha         1 04Z       0.140000
     37 H7           4.8880     1.9480    -2.2690 h1         1 04Z       0.051700
     38 H7A          3.9620     0.3880    -2.5760 h1         1 04Z       0.051700
     39 H7B          3.0700     1.9940    -2.5540 h1         1 04Z       0.051700
     40 H16         -1.8610    -3.5240     6.1910 ha         1 04Z       0.178500
     41 H17         -3.3460    -4.7640     7.6850 ha         1 04Z       0.164500
     42 H19         -1.8620    -8.5300     6.1240 ha         1 04Z       0.164500
     43 H20         -0.3520    -7.3290     4.6110 ha         1 04Z       0.178500
     44 H43         -5.1330    -7.2260     6.0250 hn         1 04Z       0.445133
@<TRIPOS>BOND
     1     1     5 ar  
     2     1    14 ar  
     3     1    28 1   
     4     2    20 1   
     5     2    21 2   
     6     3     8 2   
     7     4    19 1   
     8     4    21 1   
     9     5     9 ar  
    10     5    15 1   
    11     6    20 1   
    12     6    29 1   
    13     6    30 1   
    14     7     8 2   
    15     8    13 1   
    16     8    25 1   
    17     9    17 ar  
    18     9    31 1   
    19    10    21 1   
    20    10    22 1   
    21    10    32 1   
    22    11    18 2   
    23    12    14 ar  
    24    12    17 ar  
    25    12    33 1   
    26    13    34 1   
    27    13    35 1   
    28    13    44 1   
    29    14    36 1   
    30    15    16 1   
    31    16    37 1   
    32    16    38 1   
    33    16    39 1   
    34    17    18 1   
    35    18    19 1   
    36    19    20 2   
    37    22    23 ar  
    38    22    27 ar  
    39    23    24 ar  
    40    23    40 1   
    41    24    25 ar  
    42    24    41 1   
    43    25    26 ar  
    44    26    27 ar  
    45    26    42 1   
    46    27    43 1   
@<TRIPOS>SUBSTRUCTURE
     1 04Z         1 TEMP              0 ****  ****    0 ROOT
