@<TRIPOS>MOLECULE
molecule
   58    61     1     0     0
SMALL
bcc


@<TRIPOS>ATOM
      1 N30         -1.2760     0.0140    -2.2290 n1         1 051      -0.379800
      2 C30         -0.7180    -0.0000    -1.2390 cg         1 051       0.250800
      3 C27          0.0000     0.0000     0.0000 ca         1 051      -0.012000
      4 C26          1.3960     0.0000     0.0000 ca         1 051      -0.136000
      5 C25          2.0820     0.0000     1.1990 ca         1 051       0.126900
      6 F25          3.4330    -0.0010     1.2030 f          1 051      -0.136900
      7 C28         -0.6920     0.0060     1.2120 ca         1 051      -0.108000
      8 C29          0.0040     0.0060     2.4030 ca         1 051      -0.081000
      9 C24          1.3880     0.0000     2.3990 ca         1 051      -0.091300
     10 C23          2.1410     0.0020     3.7030 c3         1 051       0.191700
     11 O22          1.2140     0.0020     4.7900 os         1 051      -0.349900
     12 C20          1.7330     0.0030     6.0450 ca         1 051       0.149100
     13 C21          0.8940     0.0040     7.1220 ca         1 051      -0.159000
     14 C15          1.4300     0.0050     8.4200 ca         1 051       0.045000
     15 C14          0.5970     0.0050     9.5530 ca         1 051      -0.152000
     16 C13          1.1510     0.0040    10.7960 ca         1 051       0.028000
     17 C19          3.1210    -0.0030     6.2170 ca         1 051      -0.264000
     18 C18          3.6710    -0.0020     7.4610 ca         1 051      -0.069000
     19 C16          2.8370     0.0050     8.5920 ca         1 051      -0.080000
     20 C17          3.3720     0.0050     9.8920 ca         1 051       0.006000
     21 C12          2.5350     0.0050    10.9650 ca         1 051      -0.247500
     22 S11          3.2110     0.0050    12.5930 sy         1 051       1.428200
     23 O32          4.5180     0.5500    12.4840 o          1 051      -0.679300
     24 O33          2.2100     0.5490    13.4420 o          1 051      -0.679300
     25 N            3.3990    -1.5760    13.0450 n7         1 051      -0.855100
     26 C1           4.3480    -2.4350    12.3320 c3         1 051       0.271500
     27 C3           5.6860    -2.4440    13.0750 c3         1 051      -0.109400
     28 C6           5.4790    -2.9810    14.4920 c3         1 051      -0.050400
     29 C4           4.9240    -4.4050    14.4220 c3         1 051      -0.175700
     30 C8           4.7210    -4.9350    15.8170 c          1 051       0.896600
     31 O4           5.7640    -5.0330    16.6570 o          1 051      -0.867800
     32 O3           3.6180    -5.2710    16.1810 o          1 051      -0.867800
     33 C5           3.5870    -4.3960    13.6780 c3         1 051      -0.034400
     34 C2           3.7940    -3.8600    12.2610 c3         1 051      -0.183700
     35 C7           2.4770    -3.8500    11.5290 c          1 051       0.900600
     36 O1           1.8030    -4.9960    11.3470 o          1 051      -0.868800
     37 O2           2.0270    -2.8110    11.1080 o          1 051      -0.868800
     38 H26          1.9380     0.0900    -0.9340 ha         1 051       0.150000
     39 H28         -1.7760     0.0100     1.2170 ha         1 051       0.144000
     40 H29         -0.5340     0.0080     3.3430 ha         1 051       0.176000
     41 H231         2.7640     0.8860     3.7590 h1         1 051       0.057700
     42 H232         2.7640    -0.8830     3.7600 h1         1 051       0.057700
     43 H21         -0.1770     0.0290     6.9620 ha         1 051       0.136000
     44 H19          4.0340     0.0020     5.6330 ha         1 051       0.135000
     45 H14         -0.4800     0.0050     9.4370 ha         1 051       0.123000
     46 H13          0.5070     0.0050    11.6670 ha         1 051       0.150000
     47 H18          4.7520     0.0340     7.5190 ha         1 051       0.125000
     48 H17          4.4450     0.0050    10.0380 ha         1 051       0.144000
     49 H            2.8700    -1.9440    13.8110 hn         1 051       0.474800
     50 H1           4.4980    -2.0580    11.3270 h1         1 051       0.031700
     51 H31C         6.0750    -1.4350    13.1250 hc         1 051       0.026700
     52 H32C         6.3860    -3.0810    12.5470 hc         1 051       0.026700
     53 H2           4.4990    -4.4930    11.7360 hc         1 051       0.043700
     54 H61C         6.4270    -2.9890    15.0150 hc         1 051       0.035700
     55 H62C         4.7750    -2.3460    15.0180 hc         1 051       0.035700
     56 H4           5.6250    -5.0370    13.8900 hc         1 051       0.032700
     57 H51C         2.8860    -3.7590    14.2050 hc         1 051       0.053700
     58 H52C         3.1970    -5.4060    13.6270 hc         1 051       0.053700
@<TRIPOS>BOND
     1     1     2 3   
     2     2     3 1   
     3     3     4 ar  
     4     3     7 ar  
     5     4     5 ar  
     6     5     6 1   
     7     5     9 ar  
     8     7     8 ar  
     9     8     9 ar  
    10     9    10 1   
    11    10    11 1   
    12    11    12 1   
    13    12    13 ar  
    14    12    17 ar  
    15    13    14 ar  
    16    14    15 ar  
    17    14    19 ar  
    18    15    16 ar  
    19    16    21 ar  
    20    17    18 ar  
    21    18    19 ar  
    22    19    20 ar  
    23    20    21 ar  
    24    21    22 1   
    25    22    23 2   
    26    22    24 2   
    27    22    25 1   
    28    25    26 1   
    29    26    27 1   
    30    26    34 1   
    31    27    28 1   
    32    28    29 1   
    33    29    30 1   
    34    29    33 1   
    35    30    31 1   
    36    30    32 1   
    37    33    34 1   
    38    34    35 1   
    39    35    36 1   
    40    35    37 1   
    41     4    38 1   
    42     7    39 1   
    43     8    40 1   
    44    10    41 1   
    45    10    42 1   
    46    13    43 1   
    47    17    44 1   
    48    15    45 1   
    49    16    46 1   
    50    18    47 1   
    51    20    48 1   
    52    25    49 1   
    53    26    50 1   
    54    27    51 1   
    55    27    52 1   
    56    34    53 1   
    57    28    54 1   
    58    28    55 1   
    59    29    56 1   
    60    33    57 1   
    61    33    58 1   
@<TRIPOS>SUBSTRUCTURE
     1 051         1 TEMP              0 ****  ****    0 ROOT
