@<TRIPOS>MOLECULE
051
   59    62     1     0     0
SMALL
bcc


@<TRIPOS>ATOM
      1 N30          0.1290     1.2020    -2.5320 n1         1 051      -0.358800
      2 C30          0.4120     0.8790    -1.4520 cg         1 051       0.234800
      3 C27          0.7540     0.4810    -0.1290 ca         1 051       0.007000
      4 C26          1.9480    -0.2120     0.0980 ca         1 051      -0.130000
      5 C25          2.2760    -0.6080     1.4070 ca         1 051       0.123900
      6 F25          3.4310    -1.2810     1.6230 f          1 051      -0.131900
      7 C28         -0.1040     0.7830     0.9370 ca         1 051      -0.105000
      8 C29          0.2290     0.3850     2.2280 ca         1 051      -0.092000
      9 C24          1.4130    -0.3090     2.4860 ca         1 051      -0.129300
     10 C23          1.7620    -0.7770     3.8600 c3         1 051       0.168700
     11 O22          1.0140    -0.1210     4.8800 os         1 051      -0.327900
     12 C20          1.5250     1.0690     5.3690 ca         1 051       0.129100
     13 C21          2.5150     1.8140     4.7660 ca         1 051      -0.206000
     14 C15          2.9420     3.0290     5.3690 ca         1 051       0.042000
     15 C14          3.9630     3.8280     4.7870 ca         1 051      -0.144000
     16 C13          4.3630     4.9920     5.3920 ca         1 051      -0.024000
     17 C19          0.9070     1.4960     6.5840 ca         1 051      -0.155000
     18 C18          1.3120     2.6670     7.1660 ca         1 051      -0.072000
     19 C16          2.3390     3.4590     6.5790 ca         1 051      -0.095000
     20 C17          2.7800     4.6650     7.1790 ca         1 051       0.025000
     21 C12          3.7750     5.4290     6.6070 ca         1 051      -0.371500
     22 S11          4.3000     6.8820     7.3200 sy         1 051       1.511200
     23 O32          4.6010     7.7810     6.2730 o          1 051      -0.659300
     24 O33          3.3020     7.2920     8.2370 o          1 051      -0.659300
     25 N            5.6510     6.4540     8.0760 n7         1 051      -0.915100
     26 C1           5.7350     6.0740     9.4670 c3         1 051       0.246500
     27 C3           5.6570     4.5530     9.6920 c3         1 051      -0.097400
     28 C6           6.8500     3.8360     9.1010 c3         1 051      -0.067400
     29 C4           8.1770     4.3710     9.6030 c3         1 051      -0.196700
     30 C8           9.3050     3.7840     8.7000 c          1 051       0.917600
     31 O4          10.0930     2.9500     9.2170 o          1 051      -0.834300
     32 O3           9.3500     4.1840     7.5010 o          1 051      -0.834300
     33 C5           8.2640     5.8840     9.5460 c3         1 051      -0.070400
     34 C2           7.0400     6.5560    10.1440 c3         1 051      -0.163700
     35 C7           7.1310     8.0570    10.1270 c          1 051       0.635100
     36 O1           6.7820     8.8100    11.0420 o          1 051      -0.525000
     37 O2           7.6350     8.7260     9.0510 oh         1 051      -0.586100
     38 H26          2.6320    -0.4490    -0.7300 ha         1 051       0.162000
     39 H28         -1.0390     1.3330     0.7530 ha         1 051       0.151000
     40 H29         -0.4420     0.6210     3.0710 ha         1 051       0.163000
     41 H231         2.8670    -0.6870     4.0440 h1         1 051       0.081200
     42 H232         1.4520    -1.8560     3.9750 h1         1 051       0.081200
     43 H21          2.9860     1.4970     3.8250 ha         1 051       0.145000
     44 H19          0.1200     0.8670     7.0240 ha         1 051       0.148000
     45 H14          4.4310     3.4910     3.8500 ha         1 051       0.141000
     46 H13          5.1490     5.6180     4.9340 ha         1 051       0.155000
     47 H18          0.8520     3.0130     8.1050 ha         1 051       0.140000
     48 H17          2.3050     4.9950     8.1210 ha         1 051       0.154000
     49 H            6.4790     6.2230     7.5710 hn         1 051       0.466800
     50 H1           4.8640     6.5650    10.0020 h1         1 051       0.070700
     51 H31C         5.6100     4.3730    10.7970 hc         1 051       0.035200
     52 H32C         4.7090     4.1540     9.2440 hc         1 051       0.035200
     53 H2           6.9620     6.2510    11.2290 hc         1 051       0.089700
     54 H61C         6.8320     3.9150     7.9810 hc         1 051       0.050700
     55 H62C         6.7840     2.7450     9.3530 hc         1 051       0.050700
     56 H4           8.3430     4.0270    10.6580 hc         1 051       0.043700
     57 H51C         9.1750     6.2180    10.1090 hc         1 051       0.055200
     58 H52C         8.4140     6.1810     8.4720 hc         1 051       0.055200
     59 HN3          7.9090     8.0990     8.3660 ho         1 051       0.438000
@<TRIPOS>BOND
     1     1     2 3   
     2     2     3 1   
     3     3     4 ar  
     4     3     7 ar  
     5     4     5 ar  
     6     4    38 1   
     7     5     6 1   
     8     5     9 ar  
     9     7     8 ar  
    10     7    39 1   
    11     8     9 ar  
    12     8    40 1   
    13     9    10 1   
    14    10    11 1   
    15    10    41 1   
    16    10    42 1   
    17    11    12 1   
    18    12    13 ar  
    19    12    17 ar  
    20    13    14 ar  
    21    13    43 1   
    22    14    15 ar  
    23    14    19 ar  
    24    15    16 ar  
    25    15    45 1   
    26    16    21 ar  
    27    16    46 1   
    28    17    18 ar  
    29    17    44 1   
    30    18    19 ar  
    31    18    47 1   
    32    19    20 ar  
    33    20    21 ar  
    34    20    48 1   
    35    21    22 1   
    36    22    23 2   
    37    22    24 2   
    38    22    25 1   
    39    25    26 1   
    40    25    49 1   
    41    26    27 1   
    42    26    34 1   
    43    26    50 1   
    44    27    28 1   
    45    27    51 1   
    46    27    52 1   
    47    28    29 1   
    48    28    54 1   
    49    28    55 1   
    50    29    30 1   
    51    29    33 1   
    52    29    56 1   
    53    30    31 1   
    54    30    32 1   
    55    33    34 1   
    56    33    57 1   
    57    33    58 1   
    58    34    35 1   
    59    34    53 1   
    60    35    36 2   
    61    35    37 1   
    62    37    59 1   
@<TRIPOS>SUBSTRUCTURE
     1 051         1 TEMP              0 ****  ****    0 ROOT
