@<TRIPOS>MOLECULE
052
   71    76     1     0     0
SMALL
bcc


@<TRIPOS>ATOM
      1 C11         -0.4380    -0.2150    -0.1460 cc         1 052      -0.332800
      2 C13         -6.7470     0.2280     2.7170 ca         1 052      -0.125000
      3 C14         -5.7910     1.2430     2.7650 ca         1 052      -0.122000
      4 C16         -4.1650    -0.3530     3.5210 ca         1 052       0.082100
      5 C17         -5.1070    -1.3860     3.4680 ca         1 052      -0.118500
      6 C18         -6.4070    -1.0800     3.0670 ca         1 052      -0.122000
      7 C19         -3.5640     0.2860    -2.1670 ca         1 052       0.050700
      8 C21         -1.3150     0.0580    -1.2250 ca         1 052       0.153200
      9 C22         -0.7820     0.3720    -2.5040 ca         1 052      -0.170000
     10 C23         -1.6070     0.6500    -3.5710 ca         1 052      -0.071000
     11 C25         -3.0110     0.6290    -3.4270 ca         1 052      -0.266600
     12 C26         -3.9060     0.9110    -4.5240 c          1 052       0.596700
     13 C28         -1.6290     0.8650    -7.2970 cx         1 052      -0.106400
     14 C29         -2.4770     1.8350    -8.0600 cx         1 052      -0.106400
     15 C1           0.9330    -0.9790     8.1180 c3         1 052       0.126300
     16 C2           1.1180    -2.4790     8.4030 c3         1 052       0.090900
     17 O1           2.2490    -3.0260     7.7330 os         1 052      -0.418600
     18 C3           3.4620    -2.3550     8.0630 c3         1 052       0.090900
     19 C4           3.3340    -0.8240     8.0030 c3         1 052       0.126300
     20 N1           2.0700    -0.2990     7.5140 n3         1 052      -0.704600
     21 C5           1.9880    -0.1410     6.0770 c3         1 052       0.141800
     22 C6           1.9730    -1.4470     5.2440 c3         1 052       0.164800
     23 N3          -1.9070    -0.3990     1.9350 nd         1 052      -0.769000
     24 C7           0.6260    -0.9360     3.2480 cd         1 052       0.352300
     25 C8          -0.5940    -0.8980     3.9620 cc         1 052      -0.413300
     26 C9          -1.8070    -0.6370     3.2650 cc         1 052       0.734600
     27 C10          1.0080    -0.3590    -0.2270 cc         1 052       0.439500
     28 C12         -0.7390    -0.4230     1.2460 cd         1 052       0.516500
     29 N4           0.5470    -0.6700     1.8650 na         1 052      -0.032800
     30 N5           1.5650    -0.6300     0.9660 nd         1 052      -0.562100
     31 O2          -2.9150    -0.6520     4.0840 os         1 052      -0.350400
     32 C15         -4.4850     0.9610     3.1670 ca         1 052      -0.118500
     33 C20         -2.7170     0.0190    -1.0940 ca         1 052      -0.172000
     34 O3          -5.0660     0.5740    -4.7240 o          1 052      -0.459100
     35 N6          -3.3640     1.8480    -5.6220 ny         1 052      -0.651800
     36 C27         -3.0560     1.1170    -6.8580 cx         1 052       0.006500
     37 N2           1.8310    -1.2480     3.8260 nu         1 052      -0.735600
     38 C24         -5.0300     0.2010    -1.9720 c3         1 052      -0.084800
     39 H1          -7.7780     0.4610     2.4080 ha         1 052       0.141000
     40 H2          -6.0670     2.2730     2.4950 ha         1 052       0.142500
     41 H3          -4.8260    -2.4100     3.7550 ha         1 052       0.151500
     42 H4          -7.1670    -1.8760     3.0300 ha         1 052       0.142500
     43 H5           0.3100     0.3890    -2.6450 ha         1 052       0.148000
     44 H6          -1.1440     0.8490    -4.5500 ha         1 052       0.115000
     45 H7          -5.5350     1.1340    -2.3290 hc         1 052       0.068700
     46 H8          -5.2900     0.0470    -0.8960 hc         1 052       0.068700
     47 H9          -5.4430    -0.6580    -2.5630 hc         1 052       0.068700
     48 H10         -1.3990    -0.1280    -7.7310 hc         1 052       0.107200
     49 H11         -0.7840     1.2520    -6.6960 hc         1 052       0.107200
     50 H12         -2.8710     1.5570    -9.0570 hc         1 052       0.107200
     51 H13         -2.2430     2.9140    -8.0030 hc         1 052       0.107200
     52 H16          1.2190    -2.6550     9.5060 h1         1 052       0.057200
     53 H17          0.2550    -3.0750     8.0040 h1         1 052       0.057200
     54 H18          4.1930    -2.7370     7.3020 h1         1 052       0.057200
     55 H19          3.7880    -2.6740     9.0870 h1         1 052       0.057200
     56 H20          3.4530    -0.4150     9.0480 h1         1 052       0.062200
     57 H21          4.1750    -0.4110     7.3800 h1         1 052       0.062200
     58 H23          2.8630     0.4900     5.7540 h1         1 052       0.061700
     59 H24          1.0460     0.4400     5.8610 h1         1 052       0.061700
     60 H25          2.9460    -1.9970     5.4060 h1         1 052       0.080200
     61 H26          1.1490    -2.1220     5.6190 h1         1 052       0.080200
     62 H28         -0.6260    -1.0700     5.0460 ha         1 052       0.187000
     63 H29          1.6250    -0.2770    -1.1260 h4         1 052       0.057800
     64 H30         -3.7220     1.7500     3.2100 ha         1 052       0.151500
     65 H31         -3.1710    -0.2410    -0.1230 ha         1 052       0.186000
     66 H32         -4.0950     2.5380    -5.8380 hn         1 052       0.450800
     67 H33         -3.8230     0.3220    -7.0260 hx         1 052       0.153700
     68 H14          0.7400    -0.4520     9.0970 h1         1 052       0.062200
     69 H27          2.6700    -1.1550     3.2950 hn         1 052       0.465800
     70 H62         -2.5350     2.3410    -5.2780 hn         1 052       0.450800
     71 H15          0.0220    -0.8370     7.4730 h1         1 052       0.062200
@<TRIPOS>BOND
     1     1     8 1   
     2     1    27 1   
     3     1    28 2   
     4     2     3 ar  
     5     2     6 ar  
     6     2    39 1   
     7     3    32 ar  
     8     3    40 1   
     9     4     5 ar  
    10     4    31 1   
    11     4    32 ar  
    12     5     6 ar  
    13     5    41 1   
    14     6    42 1   
    15     7    11 ar  
    16     7    33 ar  
    17     7    38 1   
    18     8     9 ar  
    19     8    33 ar  
    20     9    10 ar  
    21     9    43 1   
    22    10    11 ar  
    23    10    44 1   
    24    11    12 1   
    25    12    34 2   
    26    12    35 1   
    27    13    14 1   
    28    13    36 1   
    29    13    48 1   
    30    13    49 1   
    31    14    36 1   
    32    14    50 1   
    33    14    51 1   
    34    15    16 1   
    35    15    20 1   
    36    15    68 1   
    37    15    71 1   
    38    16    17 1   
    39    16    52 1   
    40    16    53 1   
    41    17    18 1   
    42    18    19 1   
    43    18    54 1   
    44    18    55 1   
    45    19    20 1   
    46    19    56 1   
    47    19    57 1   
    48    20    21 1   
    49    21    22 1   
    50    21    58 1   
    51    21    59 1   
    52    22    37 1   
    53    22    60 1   
    54    22    61 1   
    55    23    26 2   
    56    23    28 1   
    57    24    25 2   
    58    24    29 1   
    59    24    37 1   
    60    25    26 1   
    61    25    62 1   
    62    26    31 1   
    63    27    30 2   
    64    27    63 1   
    65    28    29 1   
    66    29    30 1   
    67    32    64 1   
    68    33    65 1   
    69    35    36 1   
    70    35    66 1   
    71    35    70 1   
    72    36    67 1   
    73    37    69 1   
    74    38    45 1   
    75    38    46 1   
    76    38    47 1   
@<TRIPOS>SUBSTRUCTURE
     1 052         1 TEMP              0 ****  ****    0 ROOT
