@<TRIPOS>MOLECULE
052
   70    75     1     0     0
SMALL
bcc


@<TRIPOS>ATOM
      1 C11          0.0000     0.0000     0.0000 cc         1 052      -0.331800
      2 C13         -6.2440     0.2730     1.2710 ca         1 052      -0.101000
      3 C14         -5.8510     1.3780     2.0030 ca         1 052      -0.088000
      4 C16         -4.0580     0.1070     2.9580 ca         1 052       0.109100
      5 C17         -4.4570    -1.0030     2.2260 ca         1 052      -0.102500
      6 C18         -5.5490    -0.9170     1.3850 ca         1 052      -0.088000
      7 C19         -1.4770     0.9280    -3.3110 ca         1 052      -0.006300
      8 C21         -0.8770     0.0000    -1.1890 ca         1 052       0.063200
      9 C22         -1.9190    -0.9280    -1.2880 ca         1 052      -0.110000
     10 C23         -2.7270    -0.9320    -2.3880 ca         1 052      -0.076000
     11 C25         -2.5160    -0.0030    -3.4140 ca         1 052      -0.182600
     12 C26         -3.3890    -0.0070    -4.6020 c          1 052       0.616700
     13 C28         -6.4090    -1.9210    -6.1630 cx         1 052      -0.087400
     14 C29         -5.1960    -2.7050    -6.6670 cx         1 052      -0.087400
     15 C1           4.2300    -0.2260     8.4340 c3         1 052       0.106800
     16 C2           4.0520    -0.2710     9.9540 c3         1 052       0.215400
     17 O1           3.4530     0.9510    10.3950 os         1 052      -0.408600
     18 C3           2.1810     1.2160     9.7990 c3         1 052       0.215400
     19 C4           2.3390     1.2760     8.2770 c3         1 052       0.106800
     20 N1           2.9250     0.0160     7.8000 n3         1 052      -0.532600
     21 C5           3.0420     0.0100     6.3360 c3         1 052       0.146800
     22 C6           1.6450     0.0120     5.7130 c3         1 052       0.145800
     23 N3          -1.6190     0.0120     1.9120 nd         1 052      -0.685000
     24 C7           0.6270     0.0090     3.4700 cd         1 052       0.031300
     25 C8          -0.6130     0.0150     4.0470 cc         1 052      -0.413300
     26 C9          -1.7490     0.0170     3.2280 cc         1 052       0.691600
     27 C10          1.4030     0.0000     0.0000 cc         1 052       0.521500
     28 C12         -0.4130     0.0050     1.3410 cd         1 052       0.291500
     29 N4           0.7250     0.0040     2.1030 na         1 052       0.463200
     30 N5           1.8250     0.0000     1.2380 nd         1 052      -0.764100
     31 O2          -2.9840     0.0250     3.7860 os         1 052      -0.334400
     32 C15         -4.7600     1.2980     2.8460 ca         1 052      -0.102500
     33 C20         -0.6660     0.9270    -2.2130 ca         1 052      -0.128000
     34 O3          -3.2760     0.8650    -5.4420 o          1 052      -0.654100
     35 N6          -4.3120    -0.9760    -4.7570 ns         1 052      -0.185900
     36 C27         -5.0240    -1.2720    -6.1600 cx         1 052      -0.022300
     37 H1          -7.1010     0.3380     0.6110 ha         1 052       0.103000
     38 H2          -6.3990     2.3090     1.9130 ha         1 052       0.103500
     39 H3          -3.9120    -1.9350     2.3140 ha         1 052       0.111500
     40 H4          -5.8600    -1.7820     0.8110 ha         1 052       0.103500
     41 H5          -2.0830    -1.6460    -0.4940 ha         1 052       0.114000
     42 H6          -3.5330    -1.6520    -2.4660 ha         1 052       0.097000
     43 H7          -1.0730     1.4020    -5.3470 hc         1 052       0.020367
     44 H8          -0.3890     2.5400    -4.1770 hc         1 052       0.020367
     45 H9          -2.1250     2.5580    -4.5180 hc         1 052       0.020367
     46 H10         -7.0890    -1.5680    -6.9300 hc         1 052       0.047950
     47 H11         -6.7890    -2.2180    -5.1930 hc         1 052       0.047950
     48 H12         -5.1340    -2.8320    -7.7410 hc         1 052       0.047950
     49 H13         -4.8340    -3.4820    -6.0040 hc         1 052       0.047950
     50 H15          4.9110     0.5760     8.1750 h1         1 052       0.019450
     51 H16          5.0190    -0.3890    10.4270 h1         1 052       0.014950
     52 H17          3.4100    -1.1030    10.2180 h1         1 052       0.014950
     53 H18          1.8050     2.1660    10.1600 h1         1 052       0.014950
     54 H19          1.4880     0.4250    10.0580 h1         1 052       0.014950
     55 H20          2.9920     2.1000     8.0150 h1         1 052       0.019450
     56 H21          1.3680     1.4180     7.8190 h1         1 052       0.019450
     57 H23          3.5770    -0.8780     6.0200 h1         1 052       0.017200
     58 H24          3.5830     0.8910     6.0130 h1         1 052       0.017200
     59 H25          1.1100     0.9000     6.0300 h1         1 052       0.033200
     60 H26          1.1040    -0.8690     6.0350 h1         1 052       0.033200
     61 H28         -0.7150     0.0200     5.1260 ha         1 052       0.155000
     62 H29          2.0340    -0.0010    -0.8810 h4         1 052       0.014800
     63 H30         -4.4510     2.1640     3.4170 ha         1 052       0.111500
     64 H31          0.1250     1.6620    -2.1240 ha         1 052       0.114000
     65 H32         -4.4140    -1.6870    -4.0600 hn         1 052       0.167500
     66 H33         -4.8680    -0.5330    -6.9360 h1         1 052       0.083700
     67 C24         -1.2500     1.9270    -4.4160 c3         1 052       0.048200
     68 N2           1.7610     0.0070     4.2520 nu         1 052      -0.369600
     69 H14          4.6280    -1.1720     8.0900 h1         1 052       0.019450
     70 H27          2.6650    -0.0030     3.8230 hn         1 052       0.315800
@<TRIPOS>BOND
     1     1     8 1   
     2     1    27 1   
     3     1    28 2   
     4     2     3 ar  
     5     2     6 ar  
     6     2    37 1   
     7     3    32 ar  
     8     3    38 1   
     9     4     5 ar  
    10     4    31 1   
    11     4    32 ar  
    12     5     6 ar  
    13     5    39 1   
    14     6    40 1   
    15     7    11 ar  
    16     7    33 ar  
    17     7    67 1   
    18     8     9 ar  
    19     8    33 ar  
    20     9    10 ar  
    21     9    41 1   
    22    10    11 ar  
    23    10    42 1   
    24    11    12 1   
    25    12    34 2   
    26    12    35 1   
    27    13    14 1   
    28    13    36 1   
    29    13    46 1   
    30    13    47 1   
    31    14    36 1   
    32    14    48 1   
    33    14    49 1   
    34    15    16 1   
    35    15    20 1   
    36    15    50 1   
    37    15    69 1   
    38    16    17 1   
    39    16    51 1   
    40    16    52 1   
    41    17    18 1   
    42    18    19 1   
    43    18    53 1   
    44    18    54 1   
    45    19    20 1   
    46    19    55 1   
    47    19    56 1   
    48    20    21 1   
    49    21    22 1   
    50    21    57 1   
    51    21    58 1   
    52    22    59 1   
    53    22    60 1   
    54    22    68 1   
    55    23    26 2   
    56    23    28 1   
    57    24    25 2   
    58    24    29 1   
    59    24    68 1   
    60    25    26 1   
    61    25    61 1   
    62    26    31 1   
    63    27    30 2   
    64    27    62 1   
    65    28    29 1   
    66    29    30 1   
    67    32    63 1   
    68    33    64 1   
    69    35    36 1   
    70    35    65 1   
    71    36    66 1   
    72    43    67 1   
    73    44    67 1   
    74    45    67 1   
    75    68    70 1   
@<TRIPOS>SUBSTRUCTURE
     1 052         1 TEMP              0 ****  ****    0 ROOT
