@<TRIPOS>MOLECULE
053
   45    48     1     0     0
SMALL
bcc


@<TRIPOS>ATOM
      1 C1           0.1160    -0.0530     0.0730 cc         1 053      -0.085200
      2 C2           0.7150     1.0880     0.5410 cd         1 053      -0.061000
      3 C3           1.5520     1.0600     1.6960 cd         1 053      -0.219000
      4 C4           1.7570    -0.1240     2.3530 cc         1 053      -0.034400
      5 N5           1.1840    -1.2920     1.9080 ns         1 053      -0.448100
      6 C6           0.3410    -1.3280     0.7770 c          1 053       0.686700
      7 C7          -2.8600     2.5490    -4.1730 ca         1 053      -0.037300
      8 C8          -1.8900     3.4710    -3.7980 ca         1 053      -0.266300
      9 C9          -1.5120     4.4950    -4.7230 ca         1 053       0.618200
     10 N10         -2.1020     4.6100    -5.9570 nb         1 053      -0.738000
     11 C11         -3.0270     3.6910    -6.2800 ca         1 053       0.414200
     12 C12         -3.4420     2.6450    -5.4450 ca         1 053      -0.294300
     13 C13         -0.4550    -2.8580    -3.6150 ca         1 053      -0.216300
     14 C14         -1.4040    -2.3680    -4.5300 ca         1 053      -0.097000
     15 C15         -2.0840    -1.1870    -4.2860 ca         1 053      -0.149000
     16 C16         -0.1580    -2.1840    -2.4330 ca         1 053      -0.020000
     17 C17         -0.8140    -0.9870    -2.1580 ca         1 053      -0.062800
     18 C18         -1.7950    -0.4880    -3.1030 ca         1 053      -0.032200
     19 N19         -2.3120     0.7050    -2.5960 na         1 053      -0.054400
     20 C20         -1.6700     1.0020    -1.3810 cd         1 053      -0.037300
     21 C21         -0.7510    -0.0200    -1.0770 cc         1 053      -0.120200
     22 O23         -3.1880     2.3580    -0.1380 o          1 053      -0.803800
     23 C25          0.2420    -4.1680    -3.9310 c3         1 053       0.693200
     24 O26         -1.1610     3.1950    -0.5950 o          1 053      -0.803800
     25 F27         -0.4750    -5.3000    -3.6130 f          1 053      -0.253633
     26 F28          0.5430    -4.3570    -5.2630 f          1 053      -0.253633
     27 F29          1.4490    -4.3660    -3.3020 f          1 053      -0.253633
     28 O30         -0.1260    -2.4500     0.4850 o          1 053      -0.666500
     29 N31         -0.4640     5.3630    -4.3770 nv         1 053      -0.926500
     30 H2           0.5270     2.0590     0.0390 ha         1 053       0.201000
     31 H3           2.0110     1.9900     2.0530 ha         1 053       0.141000
     32 H4           2.3840    -0.2030     3.2570 h4         1 053       0.131000
     33 HN5          1.3190    -2.1350     2.4170 hn         1 053       0.316500
     34 H8          -1.4270     3.4210    -2.7920 ha         1 053       0.204000
     35 H11         -3.4670     3.8130    -7.2860 h4         1 053       0.003100
     36 H12         -4.2030     1.9310    -5.7790 ha         1 053       0.131000
     37 H14         -1.6000    -2.9360    -5.4520 ha         1 053       0.127000
     38 H15         -2.8230    -0.8030    -5.0010 ha         1 053       0.129000
     39 H16          0.5680    -2.5960    -1.7140 ha         1 053       0.161000
     40 H24         -3.8900     2.0350    -2.3620 h1         1 053       0.086700
     41 H24A        -4.0570     0.8090    -3.7270 h1         1 053       0.086700
     42 HN31        -0.4410     6.2310    -4.8630 hn         1 053       0.402800
     43 HN3A        -0.3260     5.4410    -3.3930 hn         1 053       0.402800
     44 C22         -2.0320     2.2810    -0.6240 c          1 053       0.925800
     45 C24         -3.3390     1.5030    -3.2010 c3         1 053       0.072600
@<TRIPOS>BOND
     1     1     2 2   
     2     1     6 1   
     3     1    21 1   
     4     2     3 1   
     5     2    30 1   
     6     3     4 2   
     7     3    31 1   
     8     4     5 1   
     9     4    32 1   
    10     5     6 1   
    11     5    33 1   
    12     6    28 2   
    13     7     8 ar  
    14     7    12 ar  
    15     7    45 1   
    16     8     9 ar  
    17     8    34 1   
    18     9    10 ar  
    19     9    29 1   
    20    10    11 ar  
    21    11    12 ar  
    22    11    35 1   
    23    12    36 1   
    24    13    14 ar  
    25    13    16 ar  
    26    13    23 1   
    27    14    15 ar  
    28    14    37 1   
    29    15    18 ar  
    30    15    38 1   
    31    16    17 ar  
    32    16    39 1   
    33    17    18 ar  
    34    17    21 1   
    35    18    19 1   
    36    19    20 1   
    37    19    45 1   
    38    20    21 2   
    39    20    44 1   
    40    22    44 1   
    41    23    25 1   
    42    23    26 1   
    43    23    27 1   
    44    24    44 1   
    45    29    42 1   
    46    29    43 1   
    47    40    45 1   
    48    41    45 1   
@<TRIPOS>SUBSTRUCTURE
     1 053         1 TEMP              0 ****  ****    0 ROOT
