@<TRIPOS>MOLECULE
molecule
   45    48     1     0     0
SMALL
bcc


@<TRIPOS>ATOM
      1 C1           0.0000     0.0000     0.0000 cc         1 053      -0.061200
      2 C2           1.3900     0.0000     0.0000 cd         1 053      -0.053000
      3 C3           2.0670     0.0000     1.2230 cd         1 053      -0.226000
      4 C4           1.3700    -0.0000     2.3860 cc         1 053      -0.027400
      5 N5           0.0140    -0.0000     2.3930 ns         1 053      -0.410100
      6 C6          -0.6860     0.0010     1.2420 c          1 053       0.695700
      7 C7          -1.3990    -1.8380    -5.2040 ca         1 053      -0.071300
      8 C8          -0.5500    -2.9240    -5.0940 ca         1 053      -0.211300
      9 C9           0.3830    -3.1570    -6.1000 ca         1 053       0.649200
     10 N10          0.4590    -2.3540    -7.1490 nb         1 053      -0.731000
     11 C11         -0.3390    -1.3100    -7.2800 ca         1 053       0.400200
     12 C12         -1.2920    -1.0230    -6.3230 ca         1 053      -0.257300
     13 C13         -1.6400     3.4360    -2.7000 ca         1 053      -0.223300
     14 C14         -2.2960     2.9660    -3.8310 ca         1 053      -0.114000
     15 C15         -2.4160     1.6140    -4.0630 ca         1 053      -0.162000
     16 C16         -1.0960     2.5620    -1.8020 ca         1 053      -0.024000
     17 C17         -1.2060     1.1860    -2.0160 ca         1 053      -0.085800
     18 C18         -1.8740     0.7040    -3.1570 ca         1 053      -0.013200
     19 N19         -1.8390    -0.6700    -3.1230 na         1 053      -0.033400
     20 C20         -1.1710    -1.1000    -1.9920 cd         1 053      -0.019300
     21 C21         -0.7490     0.0070    -1.2710 cc         1 053      -0.105200
     22 O23         -0.3360    -2.7600    -0.5980 o          1 053      -0.818800
     23 C25         -1.5200     4.9200    -2.4680 c3         1 053       0.674200
     24 O26         -1.3920    -3.4890    -2.4130 o          1 053      -0.818800
     25 F27         -2.1420     5.6070    -3.5140 f          1 053      -0.236967
     26 F28         -2.1390     5.2520    -1.2580 f          1 053      -0.236967
     27 F29         -0.1690     5.2760    -2.4130 f          1 053      -0.236967
     28 O30         -1.9050     0.0010     1.2670 o          1 053      -0.651500
     29 N31          1.2440    -4.2440    -6.0000 nv         1 053      -1.076500
     30 H2           1.9400    -0.0000    -0.9330 ha         1 053       0.140000
     31 H3           3.1500     0.0000     1.2420 ha         1 053       0.130000
     32 H4           1.9070    -0.0010     3.3270 h4         1 053       0.130000
     33 HN5         -0.4740    -0.0000     3.2660 hn         1 053       0.320500
     34 H8          -0.6080    -3.5820    -4.2360 ha         1 053       0.223000
     35 H11         -0.2500    -0.6760    -8.1540 h4         1 053       0.003100
     36 H12         -1.9420    -0.1650    -6.4390 ha         1 053       0.127000
     37 H14         -2.6920     3.5420    -4.6590 ha         1 053       0.130000
     38 H15         -3.2550     1.5180    -4.7420 ha         1 053       0.127000
     39 H16         -0.5560     2.9730    -0.9570 ha         1 053       0.134000
     40 H24         -3.2840    -1.0640    -4.5840 h1         1 053       0.085200
     41 H24A        -2.7350    -2.4780    -3.6750 h1         1 053       0.085200
     42 HN31         2.1880    -4.1090    -5.6960 hn         1 053       0.427300
     43 HN3A         0.9250    -5.1600    -6.2500 hn         1 053       0.427300
     44 C22         -0.9380    -2.4950    -1.6210 c          1 053       0.902800
     45 C24         -2.4250    -1.5500    -4.1380 c3         1 053       0.092600
@<TRIPOS>BOND
     1     1     2 2
     2     6     1 1
     3    21     1 1
     4     2     3 1
     5     2    30 1
     6     3     4 2
     7     3    31 1
     8     5     4 1
     9     4    32 1
    10     6     5 1
    11     5    33 1
    12    28     6 2
    13    12     7 ar
    14     7    45 1
    15     7     8 ar
    16     9     8 ar
    17     8    34 1
    18    10     9 ar
    19     9    29 1
    20    11    10 ar
    21    11    12 ar
    22    11    35 1
    23    12    36 1
    24    14    13 ar
    25    16    13 ar
    26    13    23 1
    27    15    14 ar
    28    14    37 1
    29    18    15 ar
    30    15    38 1
    31    17    16 ar
    32    16    39 1
    33    21    17 1
    34    18    17 ar
    35    19    18 1
    36    45    19 1
    37    20    19 1
    38    44    20 1
    39    20    21 2
    40    22    44 1
    41    44    24 1
    42    45    40 1
    43    45    41 1
    44    23    25 1
    45    23    26 1
    46    23    27 1
    47    29    42 1
    48    29    43 1
@<TRIPOS>SUBSTRUCTURE
     1 053         1 TEMP              0 ****  ****    0 ROOT
