@<TRIPOS>MOLECULE
molecule
   48    52     1     0     0
SMALL
bcc


@<TRIPOS>ATOM
      1 C1           0.0000     0.0000     0.0000 ca         1 054      -0.223300
      2 C2           1.3890     0.0000     0.0000 ca         1 054      -0.099000
      3 C3           2.0930     0.0000     1.1830 ca         1 054      -0.140000
      4 C4          -0.6920     0.0060     1.1780 ca         1 054      -0.027000
      5 C5           0.0000     0.0120     2.3910 ca         1 054      -0.085800
      6 C6           1.4080     0.0010     2.3960 ca         1 054      -0.016200
      7 N7           1.8270     0.0090     3.7060 na         1 054      -0.031400
      8 C8           0.7300     0.0250     4.5530 cc         1 054       0.002700
      9 C9          -0.4210     0.0170     3.7940 cd         1 054      -0.036600
     10 C10          0.7840     0.0370     6.0130 c          1 054       0.904800
     11 O11         -0.2460     0.0510     6.6610 o          1 054      -0.818800
     12 O12          1.9770     0.0330     6.6440 o          1 054      -0.818800
     13 C13          3.2260     0.0010     4.1420 c3         1 054       0.092600
     14 C14          3.7170     1.4190     4.2780 ca         1 054      -0.039300
     15 C15         -0.7490     0.0000    -1.3080 c3         1 054       0.675200
     16 C16          4.2980     2.0760     3.2030 ca         1 054      -0.309300
     17 C17          4.7380     3.3760     3.3600 ca         1 054       0.441200
     18 N18          4.6120     3.9970     4.5170 nb         1 054      -0.780000
     19 C19          4.0630     3.4050     5.5670 ca         1 054       0.684200
     20 C20          3.5930     2.0980     5.4780 ca         1 054      -0.268300
     21 N21         -1.7320     0.0290     4.2690 n          1 054      -0.322600
     22 C22         -2.3440    -1.1370     4.5120 c          1 054       0.832500
     23 N23         -3.5990    -1.2310     4.9690 ns         1 054      -0.449100
     24 C24         -2.3390     1.2120     4.4740 c          1 054       0.742100
     25 O25         -1.7560     2.2550     4.2480 o          1 054      -0.582500
     26 O26         -1.7260    -2.1640     4.3060 o          1 054      -0.644500
     27 C27         -4.5570     2.2730     5.2660 cd         1 054       0.013900
     28 C28         -3.7320     1.2240     4.9800 cc         1 054      -0.161600
     29 C29         -4.3620    -0.0710     5.2260 cc         1 054       0.094600
     30 C30         -5.6150     0.0500     5.6800 cd         1 054      -0.153100
     31 S31         -6.0750     1.7360     5.8160 ss         1 054      -0.227800
     32 F32          0.1640     0.0000    -2.3670 f          1 054      -0.235633
     33 F33         -1.5520    -1.1420    -1.3850 f          1 054      -0.235633
     34 F34         -1.5520     1.1430    -1.3850 f          1 054      -0.235633
     35 N35          3.9520     4.0960     6.7680 nv         1 054      -1.018500
     36 H2           1.9240    -0.0040    -0.9420 ha         1 054       0.131000
     37 H3           3.1760    -0.0000     1.1700 ha         1 054       0.126000
     38 H4          -1.7760     0.0050     1.1710 ha         1 054       0.133000
     39 H13          3.3030    -0.5010     5.0980 h1         1 054       0.085700
     40 H13A         3.8290    -0.5220     3.4100 h1         1 054       0.085700
     41 H16          4.4060     1.5740     2.2490 ha         1 054       0.122000
     42 H17          5.1920     3.8920     2.5230 h4         1 054       0.003100
     43 H20          3.1450     1.6160     6.3380 ha         1 054       0.214000
     44 HN23        -4.0000    -2.1330     5.1300 hn         1 054       0.351500
     45 H27         -4.7340     3.3410     5.3100 h4         1 054       0.181000
     46 H30         -6.5110    -0.4580     6.0130 h4         1 054       0.173000
     47 HN35         4.2400     5.0530     6.8230 hn         1 054       0.434800
     48 HN3A         3.5980     3.6320     7.5810 hn         1 054       0.434800
@<TRIPOS>BOND
     1     1     2 ar
     2     1    15 1
     3     2     3 ar
     4     2    36 1
     5     3    37 1
     6     4     1 ar
     7     4     5 ar
     8     4    38 1
     9     5     6 ar
    10     6     3 ar
    11     7     6 1
    12     7     8 1
    13     8     9 2
    14     9     5 1
    15     9    21 1
    16    10     8 1
    17    11    10 1
    18    12    10 1
    19    13     7 1
    20    13    39 1
    21    13    40 1
    22    14    13 1
    23    14    20 ar
    24    15    32 1
    25    15    33 1
    26    15    34 1
    27    16    14 ar
    28    16    41 1
    29    17    16 ar
    30    17    18 ar
    31    17    42 1
    32    18    19 ar
    33    19    35 1
    34    19    20 ar
    35    20    43 1
    36    21    24 1
    37    22    21 1
    38    22    23 1
    39    23    29 1
    40    23    44 1
    41    24    28 1
    42    24    25 2
    43    26    22 2
    44    27    45 1
    45    28    27 2
    46    29    28 1
    47    29    30 2
    48    30    31 1
    49    30    46 1
    50    31    27 1
    51    35    47 1
    52    35    48 1
@<TRIPOS>SUBSTRUCTURE
     1 054         1 TEMP              0 ****  ****    0 ROOT
