@<TRIPOS>MOLECULE
054
   48    52     1     0     0
SMALL
bcc


@<TRIPOS>ATOM
      1 C1           0.3330     0.2600    -0.0300 ca         1 054      -0.213300
      2 C2           1.7280     0.1850     0.1500 ca         1 054      -0.095000
      3 C3           2.2810     0.0750     1.4140 ca         1 054      -0.143000
      4 C4          -0.5470     0.2210     1.0470 ca         1 054      -0.017000
      5 C5          -0.0210     0.1170     2.3320 ca         1 054      -0.063800
      6 C6           1.4140     0.0410     2.5190 ca         1 054      -0.031200
      7 N7           1.6780    -0.0460     3.8890 na         1 054      -0.036400
      8 C8           0.4640    -0.0460     4.5890 cc         1 054      -0.062300
      9 C9          -0.5980     0.0600     3.6610 cd         1 054      -0.036600
     10 C10          0.3230    -0.1150     6.1060 c          1 054       0.940800
     11 O11          1.2900    -0.5450     6.7890 o          1 054      -0.813300
     12 O12         -0.7820     0.2610     6.5850 o          1 054      -0.813300
     13 C13          2.9920    -0.0900     4.4680 c3         1 054       0.074600
     14 C14          3.6590    -1.4390     4.4340 ca         1 054      -0.036300
     15 C15         -0.2010     0.3670    -1.4460 c3         1 054       0.692200
     16 C16          4.7740    -1.6730     3.6190 ca         1 054      -0.290300
     17 C17          5.3960    -2.9260     3.7010 ca         1 054       0.413200
     18 N18          4.9970    -3.9280     4.5010 nb         1 054      -0.735000
     19 C19          3.8850    -3.7070     5.2760 ca         1 054       0.611200
     20 C20          3.2010    -2.4510     5.2700 ca         1 054      -0.255300
     21 N21         -1.9690     0.1310     3.9780 n          1 054      -0.360600
     22 C22         -2.3320     1.2120     4.8520 c          1 054       0.848500
     23 N23         -3.4520     1.0940     5.7270 ns         1 054      -0.406100
     24 C24         -2.7420    -1.0540     3.9000 c          1 054       0.747100
     25 O25         -2.4630    -1.9540     3.0880 o          1 054      -0.605500
     26 O26         -1.7760     2.3220     4.7720 o          1 054      -0.607500
     27 C27         -4.7900    -2.1860     4.9230 cc         1 054      -0.089100
     28 C28         -3.9020    -1.1410     4.7960 cd         1 054      -0.204600
     29 C29         -4.1680    -0.0900     5.7610 cd         1 054       0.085600
     30 C30         -5.2410    -0.4260     6.5750 cc         1 054      -0.255100
     31 S31         -5.8730    -1.9190     6.1570 ss         1 054       0.019200
     32 F32          0.5000     1.2250    -2.2650 f          1 054      -0.252300
     33 F33         -0.1980    -0.8130    -2.1570 f          1 054      -0.252300
     34 F34         -1.4990     0.8060    -1.5600 f          1 054      -0.252300
     35 N35          3.3650    -4.7590     6.0480 nv         1 054      -0.925500
     36 H2           2.3800     0.2180    -0.7350 ha         1 054       0.129000
     37 H3           3.3690     0.0040     1.5530 ha         1 054       0.131000
     38 H4          -1.6360     0.2700     0.8940 ha         1 054       0.153000
     39 H13          3.6390     0.6540     3.9190 h1         1 054       0.087200
     40 H13A         2.8960     0.2210     5.5550 h1         1 054       0.087200
     41 H16          5.1550    -0.9020     2.9390 ha         1 054       0.131000
     42 H17          6.2850    -3.1530     3.0850 h4         1 054       0.004100
     43 H20          2.3280    -2.2620     5.9240 ha         1 054       0.205000
     44 HN23        -3.3380     1.5860     6.5900 hn         1 054       0.338500
     45 H27         -4.7730    -3.0840     4.3040 h4         1 054       0.186000
     46 H30         -5.6370     0.1740     7.3890 h4         1 054       0.172000
     47 HN35         2.8210    -4.4470     6.8210 hn         1 054       0.398800
     48 HN3A         4.0010    -5.4920     6.2660 hn         1 054       0.398800
@<TRIPOS>BOND
     1     1     2 ar  
     2     1     4 ar  
     3     1    15 1   
     4     2     3 ar  
     5     2    36 1   
     6     3     6 ar  
     7     3    37 1   
     8     4     5 ar  
     9     4    38 1   
    10     5     6 ar  
    11     5     9 1   
    12     6     7 1   
    13     7     8 1   
    14     7    13 1   
    15     8     9 2   
    16     8    10 1   
    17     9    21 1   
    18    10    11 1   
    19    10    12 1   
    20    13    14 1   
    21    13    39 1   
    22    13    40 1   
    23    14    16 ar  
    24    14    20 ar  
    25    15    32 1   
    26    15    33 1   
    27    15    34 1   
    28    16    17 ar  
    29    16    41 1   
    30    17    18 ar  
    31    17    42 1   
    32    18    19 ar  
    33    19    20 ar  
    34    19    35 1   
    35    20    43 1   
    36    21    22 1   
    37    21    24 1   
    38    22    23 1   
    39    22    26 2   
    40    23    29 1   
    41    23    44 1   
    42    24    25 2   
    43    24    28 1   
    44    27    28 2   
    45    27    31 1   
    46    27    45 1   
    47    28    29 1   
    48    29    30 2   
    49    30    31 1   
    50    30    46 1   
    51    35    47 1   
    52    35    48 1   
@<TRIPOS>SUBSTRUCTURE
     1 054         1 TEMP              0 ****  ****    0 ROOT
