@<TRIPOS>MOLECULE
055
   57    60     1     0     0
SMALL
bcc


@<TRIPOS>ATOM
      1 Cl1         -0.3170    -0.0380    -0.3690 cl         1 055      -0.090400
      2 C30          1.3450     0.3350    -0.3850 ca         1 055       0.014400
      3 C29          1.9340     0.8010     0.7920 ca         1 055      -0.117000
      4 C28          3.2830     1.1450     0.8040 ca         1 055      -0.113000
      5 C27          4.0430     1.0270    -0.3570 ca         1 055      -0.116000
      6 C26          3.4760     0.5540    -1.5430 ca         1 055      -0.079300
      7 C31          4.3080     0.4490    -2.7650 c3         1 055      -0.063800
      8 C25          2.1060     0.1890    -1.5690 ca         1 055       0.018600
      9 N24          1.4960    -0.2430    -2.7650 ns         1 055      -0.467100
     10 C23          1.1540    -1.5830    -3.0380 c          1 055       0.781100
     11 O33          0.8390    -1.8690    -4.2160 o          1 055      -0.618100
     12 N22          1.1430    -2.5210    -1.9930 ns         1 055      -0.483100
     13 C5           0.7880    -3.8670    -2.1550 ca         1 055       0.124600
     14 C6           0.9290    -4.5320    -3.3690 ca         1 055      -0.154000
     15 C1           0.5850    -5.8970    -3.5110 ca         1 055       0.023000
     16 C7           0.7300    -6.5720    -4.7560 ca         1 055      -0.139000
     17 C8           0.3970    -7.8990    -4.8670 ca         1 055      -0.092000
     18 C9          -0.0970    -8.6170    -3.7480 ca         1 055      -0.139000
     19 C2           0.0920    -6.6170    -2.3940 ca         1 055      -0.081000
     20 C10         -0.2480    -7.9930    -2.5360 ca         1 055      -0.084000
     21 C3          -0.0580    -5.9470    -1.1590 ca         1 055      -0.022000
     22 C4           0.2700    -4.6080    -1.0250 ca         1 055      -0.238600
     23 C11          0.1230    -3.9560     0.2820 c          1 055       0.585700
     24 O14          0.8980    -3.1610     0.8150 o          1 055      -0.490100
     25 N12         -1.1210    -4.2710     1.0510 ny         1 055      -0.666800
     26 C13         -0.8470    -4.9550     2.3740 c3         1 055       0.011800
     27 C16         -1.2090    -6.5040     2.2430 c          1 055       0.924600
     28 O21         -0.7620    -7.2430     3.1350 o          1 055      -0.765300
     29 O20         -1.8870    -6.8170     1.2230 o          1 055      -0.765300
     30 C46         -1.6000    -4.2720     3.4710 ca         1 055      -0.121300
     31 C47         -2.5970    -4.9390     4.1890 ca         1 055      -0.104500
     32 C48         -3.2640    -4.2820     5.2250 ca         1 055      -0.135000
     33 C49         -2.9430    -2.9640     5.5440 ca         1 055      -0.111000
     34 C50         -1.9430    -2.2970     4.8320 ca         1 055      -0.135000
     35 C51         -1.2710    -2.9490     3.8020 ca         1 055      -0.104500
     36 H29          1.3290     0.9020     1.7070 ha         1 055       0.153000
     37 H28          3.7460     1.5130     1.7320 ha         1 055       0.146000
     38 H27          5.1080     1.3080    -0.3420 ha         1 055       0.144000
     39 H31          3.9340     1.1510    -3.5540 hc         1 055       0.053700
     40 H31A         4.2800    -0.5910    -3.1770 hc         1 055       0.053700
     41 H31B         5.3740     0.7080    -2.5490 hc         1 055       0.053700
     42 HN24         1.7000     0.2970    -3.5810 hn         1 055       0.339500
     43 HN22         1.3850    -2.2170    -1.0740 hn         1 055       0.343500
     44 H6           1.3040    -4.0010    -4.2620 ha         1 055       0.180000
     45 H7           1.1100    -6.0070    -5.6210 ha         1 055       0.144000
     46 H8           0.5070    -8.4240    -5.8290 ha         1 055       0.139000
     47 H9          -0.3580    -9.6800    -3.8690 ha         1 055       0.143000
     48 H10         -0.6350    -8.5340    -1.6570 ha         1 055       0.160000
     49 H3          -0.4410    -6.5410    -0.2990 ha         1 055       0.203000
     50 HN12        -1.6340    -3.4010     1.2170 hn         1 055       0.466800
     51 H13          0.2590    -4.8850     2.5840 hx         1 055       0.106700
     52 H47         -2.8390    -5.9900     3.9500 ha         1 055       0.152500
     53 H48         -4.0430    -4.8140     5.7920 ha         1 055       0.138000
     54 H49         -3.4710    -2.4500     6.3610 ha         1 055       0.135000
     55 H50         -1.6810    -1.2610     5.0910 ha         1 055       0.138000
     56 H51         -0.4640    -2.4320     3.2600 ha         1 055       0.152500
     57 H122        -1.7240    -4.9320     0.5100 hn         1 055       0.466800
@<TRIPOS>BOND
     1     1     2 1   
     2     2     3 ar  
     3     2     8 ar  
     4     3     4 ar  
     5     3    36 1   
     6     4     5 ar  
     7     4    37 1   
     8     5     6 ar  
     9     5    38 1   
    10     6     7 1   
    11     6     8 ar  
    12     7    39 1   
    13     7    40 1   
    14     7    41 1   
    15     8     9 1   
    16     9    10 1   
    17     9    42 1   
    18    10    11 2   
    19    10    12 1   
    20    12    13 1   
    21    12    43 1   
    22    13    14 ar  
    23    13    22 ar  
    24    14    15 ar  
    25    14    44 1   
    26    15    16 ar  
    27    15    19 ar  
    28    16    17 ar  
    29    16    45 1   
    30    17    18 ar  
    31    17    46 1   
    32    18    20 ar  
    33    18    47 1   
    34    19    20 ar  
    35    19    21 ar  
    36    20    48 1   
    37    21    22 ar  
    38    21    49 1   
    39    22    23 1   
    40    23    24 2   
    41    23    25 1   
    42    25    26 1   
    43    25    50 1   
    44    25    57 1   
    45    26    27 1   
    46    26    30 1   
    47    26    51 1   
    48    27    28 1   
    49    27    29 1   
    50    30    31 ar  
    51    30    35 ar  
    52    31    32 ar  
    53    31    52 1   
    54    32    33 ar  
    55    32    53 1   
    56    33    34 ar  
    57    33    54 1   
    58    34    35 ar  
    59    34    55 1   
    60    35    56 1   
@<TRIPOS>SUBSTRUCTURE
     1 055         1 TEMP              0 ****  ****    0 ROOT
