@<TRIPOS>MOLECULE
055
   56    59     1     0     0
SMALL
bcc


@<TRIPOS>ATOM
      1 Cl1          0.0000     0.0000     0.0000 cl         1 055       0.042600
      2 C30          1.7370     0.0000     0.0000 ca         1 055      -0.039600
      3 C29          2.4290     0.0000     1.1960 ca         1 055      -0.097000
      4 C28          3.8120    -0.0000     1.1960 ca         1 055      -0.113000
      5 C27          4.5060    -0.0010     0.0000 ca         1 055      -0.096000
      6 C26          3.8200    -0.0010    -1.1990 ca         1 055      -0.109300
      7 C31          4.5780    -0.0020    -2.5020 c3         1 055       0.064200
      8 C25          2.4320    -0.0070    -1.2040 ca         1 055      -0.054400
      9 N24          1.7340    -0.0130    -2.4170 ns         1 055      -0.054100
     10 C23          0.6470     0.7690    -2.5740 c          1 055       0.537100
     11 O33          0.3090     1.5250    -1.6840 o          1 055      -0.705100
     12 N22         -0.0650     0.7100    -3.7160 ns         1 055      -0.040100
     13 C5          -1.1230     1.5970    -3.9240 ca         1 055      -0.012400
     14 C6          -1.1230     2.8080    -3.2950 ca         1 055      -0.144000
     15 C1          -2.1830     3.7050    -3.5000 ca         1 055       0.000000
     16 C7          -2.2040     4.9590    -2.8640 ca         1 055      -0.090000
     17 C8          -3.2450     5.8090    -3.0810 ca         1 055      -0.109000
     18 C9          -4.2960     5.4560    -3.9270 ca         1 055      -0.125000
     19 C2          -3.2530     3.3470    -4.3620 ca         1 055      -0.063000
     20 C10         -4.3110     4.2520    -4.5610 ca         1 055      -0.077000
     21 C3          -3.2400     2.0980    -5.0000 ca         1 055      -0.059000
     22 C4          -2.1790     1.2330    -4.7870 ca         1 055      -0.148600
     23 C11         -2.1600    -0.0820    -5.4560 c          1 055       0.597700
     24 O14         -1.2880    -0.8860    -5.1920 o          1 055      -0.693100
     25 N12         -3.1110    -0.3920    -6.3610 ns         1 055      -0.117900
     26 C13         -3.0910    -1.6980    -7.0250 c3         1 055      -0.057000
     27 C16         -2.1760    -1.6400    -8.2210 c          1 055       0.979600
     28 O21         -2.0020    -2.7280    -8.9870 o          1 055      -0.878300
     29 O20         -1.5990    -0.6130    -8.4910 o          1 055      -0.878300
     30 C46         -4.4850    -2.0520    -7.4760 ca         1 055      -0.030300
     31 C47         -5.3040    -1.0810    -8.0190 ca         1 055      -0.093000
     32 C48         -6.5820    -1.4060    -8.4320 ca         1 055      -0.110000
     33 C49         -7.0410    -2.7020    -8.3030 ca         1 055      -0.131000
     34 C50         -6.2220    -3.6750    -7.7610 ca         1 055      -0.110000
     35 C51         -4.9420    -3.3510    -7.3510 ca         1 055      -0.093000
     36 H29          1.8870     0.0010     2.1340 ha         1 055       0.108000
     37 H28          4.3520    -0.0000     2.1350 ha         1 055       0.098000
     38 H27          5.5900    -0.0010     0.0040 ha         1 055       0.101000
     39 H31          4.2180     0.8040    -3.1290 hc         1 055       0.008700
     40 H31A         5.6340     0.1380    -2.3050 hc         1 055       0.008700
     41 H31B         4.4270    -0.9480    -3.0070 hc         1 055       0.008700
     42 HN24         2.0150    -0.6310    -3.1520 hn         1 055       0.176500
     43 HN22         0.1990     0.0690    -4.4370 hn         1 055       0.227500
     44 H6          -0.2790     3.0990    -2.6810 ha         1 055       0.159000
     45 H7          -1.3950     5.2480    -2.2040 ha         1 055       0.106000
     46 H8          -3.2580     6.7740    -2.5890 ha         1 055       0.092000
     47 H9          -5.1120     6.1510    -4.0830 ha         1 055       0.093000
     48 H10         -5.1340     3.9920    -5.2150 ha         1 055       0.101000
     49 H3          -4.0490     1.8160    -5.6620 ha         1 055       0.110000
     50 HN12        -3.8460     0.2590    -6.5570 hn         1 055       0.167500
     51 H13         -2.7330    -2.4500    -6.3330 h1         1 055       0.060700
     52 H47         -4.9450    -0.0640    -8.1200 ha         1 055       0.109500
     53 H48         -7.2240    -0.6440    -8.8570 ha         1 055       0.088500
     54 H49         -8.0440    -2.9570    -8.6250 ha         1 055       0.087000
     55 H50         -6.5810    -4.6920    -7.6610 ha         1 055       0.088500
     56 H51         -4.3000    -4.1130    -6.9260 ha         1 055       0.109500
@<TRIPOS>BOND
     1     1     2 1   
     2     2     3 ar  
     3     2     8 ar  
     4     3     4 ar  
     5     3    36 1   
     6     4     5 ar  
     7     4    37 1   
     8     5     6 ar  
     9     5    38 1   
    10     6     7 1   
    11     6     8 ar  
    12     7    39 1   
    13     7    40 1   
    14     7    41 1   
    15     8     9 1   
    16     9    10 1   
    17     9    42 1   
    18    10    11 2   
    19    10    12 1   
    20    12    13 1   
    21    12    43 1   
    22    13    14 ar  
    23    13    22 ar  
    24    14    15 ar  
    25    14    44 1   
    26    15    16 ar  
    27    15    19 ar  
    28    16    17 ar  
    29    16    45 1   
    30    17    18 ar  
    31    17    46 1   
    32    18    20 ar  
    33    18    47 1   
    34    19    20 ar  
    35    19    21 ar  
    36    20    48 1   
    37    21    22 ar  
    38    21    49 1   
    39    22    23 1   
    40    23    24 2   
    41    23    25 1   
    42    25    26 1   
    43    25    50 1   
    44    26    27 1   
    45    26    30 1   
    46    26    51 1   
    47    27    28 1   
    48    27    29 1   
    49    30    31 ar  
    50    30    35 ar  
    51    31    32 ar  
    52    31    52 1   
    53    32    33 ar  
    54    32    53 1   
    55    33    34 ar  
    56    33    54 1   
    57    34    35 ar  
    58    34    55 1   
    59    35    56 1   
@<TRIPOS>SUBSTRUCTURE
     1 055         1 TEMP              0 ****  ****    0 ROOT
