@<TRIPOS>MOLECULE
molecule
   31    32     1     0     0
SMALL
bcc


@<TRIPOS>ATOM
      1 O17          0.0000     0.0000     0.0000 o          1 056      -0.835800
      2 C16          1.3460     0.0000     0.0000 c          1 056       0.882200
      3 O18          1.9540     0.0000     1.0530 o          1 056      -0.835800
      4 C12          2.0860    -0.0010    -1.2790 ca         1 056      -0.104600
      5 C11          3.4820    -0.0010    -1.2820 ca         1 056      -0.082000
      6 C10          4.1650    -0.0010    -2.4810 ca         1 056      -0.121300
      7 C15          3.4720    -0.0000    -3.6770 ca         1 056      -0.134000
      8 C14          2.0880    -0.0010    -3.6810 ca         1 056      -0.167000
      9 C13          1.3910    -0.0060    -2.4910 ca         1 056      -0.083000
     10 S8           6.2780     1.7090    -2.4870 ss         1 056      -0.322200
     11 C6           9.6530     4.7230    -1.3000 ca         1 056      -0.118000
     12 C9           5.6720    -0.0020    -2.4860 c3         1 056       0.082000
     13 C1           9.0470     3.4800    -1.2980 ca         1 056       0.046400
     14 Cl1          8.6720     2.6990     0.2060 cl         1 056      -0.079400
     15 C2           8.7410     2.8580    -2.4960 ca         1 056      -0.049300
     16 C7           8.0810     1.5030    -2.4930 c3         1 056       0.038000
     17 C3           9.0390     3.4800    -3.6940 ca         1 056      -0.100000
     18 C4           9.6430     4.7220    -3.6960 ca         1 056      -0.125000
     19 C5           9.9470     5.3480    -2.5000 ca         1 056       0.031400
     20 Cl2         10.7070     6.9080    -2.5030 cl         1 056      -0.115400
     21 H6           9.8900     5.2120    -0.3630 ha         1 056       0.154000
     22 H4           9.8750     5.2100    -4.6350 ha         1 056       0.142000
     23 H3           8.8000     2.9920    -4.6310 ha         1 056       0.147000
     24 H71C         8.3790     0.9550    -3.3790 h1         1 056       0.064700
     25 H72C         8.3850     0.9550    -1.6100 h1         1 056       0.064700
     26 H91C         6.0360    -0.5130    -1.6020 h1         1 056       0.051700
     27 H92C         6.0300    -0.5130    -3.3710 h1         1 056       0.051700
     28 H15          4.0140     0.0020    -4.6140 ha         1 056       0.104000
     29 H11          4.0270    -0.0010    -0.3450 ha         1 056       0.151000
     30 H14          1.5500    -0.0020    -4.6220 ha         1 056       0.107000
     31 H13          0.3080    -0.0060    -2.4960 ha         1 056       0.155000
@<TRIPOS>BOND
     1    20    19 1
     2    19    11 ar
     3    19    18 ar
     4    11    13 ar
     5    13    14 1
     6    13    15 ar
     7    18    17 ar
     8    17    15 ar
     9    15    16 1
    10    16    10 1
    11    10    12 1
    12    12     6 1
    13     6     7 ar
    14     6     5 ar
    15     7     8 ar
    16     8     9 ar
    17     9     4 ar
    18     4     5 ar
    19     4     2 1
    20     2     1 1
    21     2     3 1
    22    11    21 1
    23    18    22 1
    24    17    23 1
    25    16    24 1
    26    16    25 1
    27    12    26 1
    28    12    27 1
    29     7    28 1
    30     5    29 1
    31     8    30 1
    32     9    31 1
@<TRIPOS>SUBSTRUCTURE
     1 056         1 TEMP              0 ****  ****    0 ROOT
