@<TRIPOS>MOLECULE
056
   31    32     1     0     0
SMALL
bcc


@<TRIPOS>ATOM
      1 O17          2.5020     1.8960    -0.5800 o          1 056      -0.830800
      2 C16          2.7320     0.6770    -0.3610 c          1 056       0.908200
      3 O18          2.4820     0.0860     0.7320 o          1 056      -0.830800
      4 C12          3.3740    -0.1560    -1.4580 ca         1 056      -0.125600
      5 C11          3.1700    -1.5370    -1.4690 ca         1 056      -0.113000
      6 C10          3.8490    -2.3560    -2.3790 ca         1 056      -0.117300
      7 C15          4.6950    -1.7680    -3.3270 ca         1 056      -0.134000
      8 C14          4.8600    -0.3840    -3.3520 ca         1 056      -0.157000
      9 C13          4.2090     0.4210    -2.4170 ca         1 056      -0.100000
     10 S8           4.7310    -4.6560    -1.1450 ss         1 056      -0.336200
     11 C6           7.0670    -3.2190     2.6200 ca         1 056      -0.142000
     12 C9           3.6810    -3.8220    -2.3170 c3         1 056       0.062000
     13 C1           6.1830    -3.9790     1.8490 ca         1 056       0.029400
     14 Cl1          6.5280    -5.6400     1.6530 cl         1 056      -0.115400
     15 C2           5.0490    -3.4000     1.2560 ca         1 056      -0.066300
     16 C7           4.0960    -4.2000     0.4540 c3         1 056       0.045000
     17 C3           4.8090    -2.0330     1.4640 ca         1 056      -0.090000
     18 C4           5.6810    -1.2630     2.2320 ca         1 056      -0.110000
     19 C5           6.8060    -1.8600     2.8060 ca         1 056       0.017400
     20 Cl2          7.8800    -0.9290     3.7490 cl         1 056      -0.120400
     21 H6           7.9540    -3.6860     3.0720 ha         1 056       0.145000
     22 H4           5.4680    -0.1910     2.3760 ha         1 056       0.169000
     23 H3           3.9180    -1.5320     1.0170 ha         1 056       0.221000
     24 H71C         3.8740    -5.1650     0.9780 h1         1 056       0.080700
     25 H72C         3.1330    -3.6410     0.3320 h1         1 056       0.080700
     26 H91C         2.6150    -4.0770    -2.0970 h1         1 056       0.063700
     27 H92C         3.9660    -4.3000    -3.2900 h1         1 056       0.063700
     28 H15          5.2340    -2.4000    -4.0460 ha         1 056       0.109000
     29 H11          2.4730    -1.9640    -0.7300 ha         1 056       0.139000
     30 H14          5.5170     0.0710    -4.1060 ha         1 056       0.109000
     31 H13          4.3380     1.5150    -2.4160 ha         1 056       0.147000
@<TRIPOS>BOND
     1     1     2 1   
     2     2     3 1   
     3     2     4 1   
     4     4     5 ar  
     5     4     9 ar  
     6     5     6 ar  
     7     5    29 1   
     8     6     7 ar  
     9     6    12 1   
    10     7     8 ar  
    11     7    28 1   
    12     8     9 ar  
    13     8    30 1   
    14     9    31 1   
    15    10    12 1   
    16    10    16 1   
    17    11    13 ar  
    18    11    19 ar  
    19    11    21 1   
    20    12    26 1   
    21    12    27 1   
    22    13    14 1   
    23    13    15 ar  
    24    15    16 1   
    25    15    17 ar  
    26    16    24 1   
    27    16    25 1   
    28    17    18 ar  
    29    17    23 1   
    30    18    19 ar  
    31    18    22 1   
    32    19    20 1   
@<TRIPOS>SUBSTRUCTURE
     1 056         1 TEMP              0 ****  ****    0 ROOT
