@<TRIPOS>MOLECULE
molecule
   49    52     1     0     0
SMALL
bcc


@<TRIPOS>ATOM
      1 O21          0.0000     0.0000     0.0000 o          1 057      -0.611100
      2 C20          1.2160     0.0000     0.0000 c          1 057       0.684700
      3 N22          1.8890     0.0000     1.1670 ns         1 057      -0.582900
      4 C23          1.1570    -0.0010     2.4360 c3         1 057       0.130400
      5 C26          0.2760     1.2480     2.5180 c3         1 057      -0.101100
      6 C27          0.2780    -1.2500     2.5170 c3         1 057      -0.101100
      7 C24          2.1510    -0.0010     3.5990 c3         1 057       0.135400
      8 O25          1.4370    -0.0020     4.8370 oh         1 057      -0.600800
      9 C15          1.9530    -0.0040    -1.2780 ca         1 057      -0.176600
     10 C16          3.3550    -0.0040    -1.2780 ca         1 057      -0.089000
     11 C18          4.0500    -0.0090    -2.4520 ca         1 057      -0.146000
     12 C13          3.3720    -0.0150    -3.6690 ca         1 057      -0.020200
     13 N11          3.7940    -0.0200    -4.9780 na         1 057      -0.064400
     14 C19          5.1940    -0.0220    -5.4060 c3         1 057       0.037600
     15 C12          2.7200    -0.0240    -5.8210 cc         1 057      -0.068100
     16 C17          1.2570    -0.0160    -2.4840 ca         1 057      -0.016000
     17 C14          1.9650    -0.0150    -3.6810 ca         1 057      -0.107800
     18 C10          1.5700    -0.0220    -5.1010 cd         1 057      -0.101200
     19 C9           0.1930    -0.0250    -5.6340 cd         1 057       0.037900
     20 N5          -0.8580    -0.7450    -5.1150 na         1 057      -0.273100
     21 C8          -0.2320     0.6870    -6.7100 cc         1 057      -0.191200
     22 C7          -1.6510     0.3880    -6.8810 ca         1 057      -0.218100
     23 C3          -2.6290     0.8010    -7.7910 ca         1 057      -0.050000
     24 C2          -3.9070     0.2950    -7.6430 ca         1 057      -0.287300
     25 C6          -1.9960    -0.5150    -5.8550 ca         1 057       0.471800
     26 N4          -3.2400    -0.9630    -5.7630 nb         1 057      -0.712000
     27 C1          -4.1740    -0.5930    -6.6140 ca         1 057       0.446200
     28 HN22         2.8900     0.0010     1.1670 hn         1 057       0.308500
     29 H26          0.8390     2.1100     2.1780 hc         1 057       0.051867
     30 H26A        -0.5960     1.1160     1.8900 hc         1 057       0.051867
     31 H26B        -0.0370     1.4030     3.5430 hc         1 057       0.051867
     32 H27         -0.0420    -1.4010     3.5410 hc         1 057       0.051867
     33 H27A         0.8430    -2.1120     2.1840 hc         1 057       0.051867
     34 H27B        -0.5910    -1.1220     1.8830 hc         1 057       0.051867
     35 H24          2.7740    -0.8850     3.5410 h1         1 057       0.021700
     36 H24A         2.7740     0.8840     3.5420 h1         1 057       0.021700
     37 HO25         2.0500    -0.0020     5.5530 ho         1 057       0.405000
     38 H16          3.8910     0.0010    -0.3370 ha         1 057       0.125000
     39 H18          5.1340    -0.0090    -2.4370 ha         1 057       0.129000
     40 H19          5.6890     0.8650    -5.0270 h1         1 057       0.052700
     41 H19A         5.6890    -0.9040    -5.0200 h1         1 057       0.052700
     42 H19B         5.2410    -0.0260    -6.4890 h1         1 057       0.052700
     43 H12          2.7780    -0.0280    -6.9030 h4         1 057       0.176000
     44 H17          0.1820     0.1210    -2.4900 ha         1 057       0.162000
     45 HN5         -0.8030    -1.3480    -4.3180 hn         1 057       0.310700
     46 H8           0.4010     1.2030    -7.4220 ha         1 057       0.152000
     47 H3          -2.3930     1.4960    -8.5870 ha         1 057       0.135000
     48 H2          -4.6920     0.5860    -8.3310 ha         1 057       0.136000
     49 H1          -5.1770    -0.9870    -6.5020 h4         1 057       0.022100
@<TRIPOS>BOND
     1     1     2 2
     2     2     3 1
     3     2     9 1
     4     3     4 1
     5     4     5 1
     6     4     6 1
     7     4     7 1
     8     7     8 1
     9     9    10 ar
    10     9    16 ar
    11    10    11 ar
    12    11    12 ar
    13    12    13 1
    14    12    17 ar
    15    13    14 1
    16    13    15 1
    17    15    18 2
    18    16    17 ar
    19    17    18 1
    20    18    19 1
    21    19    20 1
    22    19    21 2
    23    20    25 1
    24    21    22 1
    25    22    23 ar
    26    22    25 ar
    27    23    24 ar
    28    24    27 ar
    29    25    26 ar
    30    26    27 ar
    31     3    28 1
    32     5    29 1
    33     5    30 1
    34     5    31 1
    35     6    32 1
    36     6    33 1
    37     6    34 1
    38     7    35 1
    39     7    36 1
    40     8    37 1
    41    10    38 1
    42    11    39 1
    43    14    40 1
    44    14    41 1
    45    14    42 1
    46    15    43 1
    47    16    44 1
    48    20    45 1
    49    21    46 1
    50    23    47 1
    51    24    48 1
    52    27    49 1
@<TRIPOS>SUBSTRUCTURE
     1 057         1 TEMP              0 ****  ****    0 ROOT
