@<TRIPOS>MOLECULE
057
   50    53     1     0     0
SMALL
bcc


@<TRIPOS>ATOM
      1 O21         -0.1900    -0.1780     0.1420 o          1 057      -0.446100
      2 C20          0.9750    -0.5260    -0.0160 c          1 057       0.586700
      3 N22          1.5970    -1.2280     1.1820 ny         1 057      -0.686800
      4 C23          1.8420    -0.3090     2.3760 c3         1 057       0.151200
      5 C26          2.4720     1.0070     1.9290 c3         1 057      -0.122600
      6 C27          0.5270    -0.0330     3.1060 c3         1 057      -0.122600
      7 C24          2.8170    -1.0340     3.3500 c3         1 057       0.116400
      8 O25          3.0180    -0.1360     4.4220 oh         1 057      -0.582800
      9 C15          1.7900    -0.4260    -1.2190 ca         1 057      -0.240600
     10 C16          1.0780    -0.2810    -2.4400 ca         1 057      -0.045000
     11 C18          1.7310    -0.1840    -3.6530 ca         1 057      -0.133000
     12 C13          3.1380    -0.2200    -3.6570 ca         1 057       0.012800
     13 N11          4.0600    -0.1630    -4.6950 na         1 057      -0.046400
     14 C19          3.7590     0.0170    -6.0820 c3         1 057       0.011600
     15 C12          5.3500    -0.2250    -4.1470 cc         1 057      -0.067100
     16 C17          3.1900    -0.4430    -1.2050 ca         1 057      -0.026000
     17 C14          3.8720    -0.3400    -2.4060 ca         1 057      -0.093800
     18 C10          5.2800    -0.3350    -2.7560 cd         1 057      -0.070200
     19 C9           6.3710    -0.4110    -1.8280 cd         1 057      -0.004100
     20 N5           7.5470    -1.1290    -2.1050 na         1 057      -0.276100
     21 C8           6.4590     0.1810    -0.5610 cc         1 057      -0.170200
     22 C7           7.7380    -0.1690    -0.0110 ca         1 057      -0.208100
     23 C3           8.4280     0.1110     1.1740 ca         1 057      -0.050000
     24 C2           9.6930    -0.4270     1.3320 ca         1 057      -0.265300
     25 C6           8.4050    -1.0000    -1.0060 ca         1 057       0.433800
     26 N4           9.6560    -1.5370    -0.8520 nb         1 057      -0.662000
     27 C1          10.2540    -1.2360     0.3030 ca         1 057       0.428200
     28 HN22         2.4840    -1.6560     0.9030 hn         1 057       0.451800
     29 H26          1.7780     1.5850     1.2720 hc         1 057       0.081367
     30 H26A         3.4400     0.8410     1.3970 hc         1 057       0.081367
     31 H26B         2.6810     1.6140     2.8490 hc         1 057       0.081367
     32 H27          0.0530    -0.9790     3.4650 hc         1 057       0.081367
     33 H27A        -0.1920     0.5160     2.4500 hc         1 057       0.081367
     34 H27B         0.7620     0.6010     4.0000 hc         1 057       0.081367
     35 H24          3.7960    -1.2480     2.8410 h1         1 057       0.043700
     36 H24A         2.3600    -1.9920     3.7190 h1         1 057       0.043700
     37 HO25         3.5490    -0.6010     5.0840 ho         1 057       0.438000
     38 H16         -0.0250    -0.2440    -2.4090 ha         1 057       0.166000
     39 H18          1.1650    -0.0780    -4.5910 ha         1 057       0.166000
     40 H19          4.6140    -0.3640    -6.7020 h1         1 057       0.071367
     41 H19A         3.5990     1.1070    -6.3060 h1         1 057       0.071367
     42 H19B         2.8270    -0.5530    -6.3430 h1         1 057       0.071367
     43 H12          6.2310    -0.1800    -4.7950 h4         1 057       0.193000
     44 H17          3.7810    -0.5060    -0.2770 ha         1 057       0.138000
     45 HN5          7.7340    -1.6430    -2.9260 hn         1 057       0.313700
     46 H8           5.7180     0.8250    -0.0990 ha         1 057       0.147000
     47 H3           7.9750     0.7470     1.9480 ha         1 057       0.139000
     48 H2          10.2820    -0.2370     2.2400 ha         1 057       0.152000
     49 H1          11.2660    -1.6640     0.4320 h4         1 057       0.034100
     50 H222         0.9530    -1.9660     1.4880 hn         1 057       0.451800
@<TRIPOS>BOND
     1     1     2 2   
     2     2     3 1   
     3     2     9 1   
     4     3     4 1   
     5     3    28 1   
     6     3    50 1   
     7     4     5 1   
     8     4     6 1   
     9     4     7 1   
    10     5    29 1   
    11     5    30 1   
    12     5    31 1   
    13     6    32 1   
    14     6    33 1   
    15     6    34 1   
    16     7     8 1   
    17     7    35 1   
    18     7    36 1   
    19     8    37 1   
    20     9    10 ar  
    21     9    16 ar  
    22    10    11 ar  
    23    10    38 1   
    24    11    12 ar  
    25    11    39 1   
    26    12    13 1   
    27    12    17 ar  
    28    13    14 1   
    29    13    15 1   
    30    14    40 1   
    31    14    41 1   
    32    14    42 1   
    33    15    18 2   
    34    15    43 1   
    35    16    17 ar  
    36    16    44 1   
    37    17    18 1   
    38    18    19 1   
    39    19    20 1   
    40    19    21 2   
    41    20    25 1   
    42    20    45 1   
    43    21    22 1   
    44    21    46 1   
    45    22    23 ar  
    46    22    25 ar  
    47    23    24 ar  
    48    23    47 1   
    49    24    27 ar  
    50    24    48 1   
    51    25    26 ar  
    52    26    27 ar  
    53    27    49 1   
@<TRIPOS>SUBSTRUCTURE
     1 057         1 TEMP              0 ****  ****    0 ROOT
