@<TRIPOS>MOLECULE
058
   41    44     1     0     0
SMALL
bcc


@<TRIPOS>ATOM
      1 C1           0.0000     0.0000     0.0000 ca         1 058      -0.062600
      2 F1          -1.8640    -2.3590     4.2800 f          1 058      -0.133900
      3 N1           1.8260    -0.0000     3.7080 na         1 058       0.460600
      4 O1           1.9920    -0.0020     6.6440 o          1 058      -0.865800
      5 Cl1         -0.8620     0.0010    -1.5060 cl         1 058      -0.086400
      6 C2           1.3890     0.0000     0.0000 ca         1 058      -0.119000
      7 O2          -0.2310    -0.0010     6.6680 o          1 058      -0.865800
      8 C3           2.0910     0.0000     1.1840 ca         1 058      -0.091000
      9 C4          -0.6940     0.0050     1.1790 ca         1 058      -0.047000
     10 C5           0.7360    -0.0010     4.5540 cc         1 058      -0.207300
     11 C6          -0.4220     0.0170     3.7970 cd         1 058      -0.117400
     12 C7          -0.0010     0.0110     2.3910 ca         1 058      -0.079800
     13 C8           1.4060    -0.0000     2.3970 ca         1 058      -0.229200
     14 C9           3.2260     0.0000     4.1400 c3         1 058      -0.022400
     15 C10          0.7960    -0.0010     6.0170 c          1 058       0.998800
     16 C11         -1.8120     0.0220     4.3050 ca         1 058       0.042200
     17 C12         -2.4610     1.2320     4.5580 ca         1 058      -0.057000
     18 C13         -3.7570     1.2310     5.0310 ca         1 058      -0.125000
     19 C14         -4.4140     0.0340     5.2540 ca         1 058      -0.102000
     20 C15         -3.7800    -1.1700     5.0070 ca         1 058      -0.144000
     21 C16         -2.4830    -1.1830     4.5280 ca         1 058       0.123900
     22 C17          3.7060     1.4200     4.2890 ca         1 058      -0.104300
     23 C18          4.2730     2.0750     3.2130 ca         1 058      -0.095000
     24 C19          4.7140     3.3780     3.3490 ca         1 058      -0.123000
     25 C20          4.5850     4.0270     4.5630 ca         1 058      -0.116000
     26 C21          4.0160     3.3730     5.6390 ca         1 058      -0.123000
     27 C22          3.5710     2.0720     5.5010 ca         1 058      -0.095000
     28 H2           1.9250    -0.0000    -0.9410 ha         1 058       0.099000
     29 H3           3.1750    -0.0000     1.1730 ha         1 058       0.098000
     30 H4          -1.7730     0.0960     1.1710 ha         1 058       0.108000
     31 H9           3.3100    -0.5110     5.0910 h1         1 058       0.061200
     32 H9A          3.8320    -0.5100     3.4010 h1         1 058       0.061200
     33 H12         -1.9470     2.1700     4.3840 ha         1 058       0.108000
     34 H13         -4.2610     2.1690     5.2270 ha         1 058       0.091000
     35 H14         -5.4310     0.0400     5.6280 ha         1 058       0.088000
     36 H15         -4.3010    -2.1030     5.1840 ha         1 058       0.103000
     37 H18          4.3740     1.5660     2.2620 ha         1 058       0.148000
     38 H19          5.1590     3.8900     2.5050 ha         1 058       0.093000
     39 H20          4.9320     5.0480     4.6700 ha         1 058       0.086000
     40 H21          3.9130     3.8830     6.5890 ha         1 058       0.093000
     41 H22          3.1250     1.5590     6.3450 ha         1 058       0.148000
@<TRIPOS>BOND
     1     1     5 1   
     2     1     6 ar  
     3     1     9 ar  
     4     2    21 1   
     5     3    10 1   
     6     3    13 1   
     7     3    14 1   
     8     4    15 1   
     9     6     8 ar  
    10     6    28 1   
    11     7    15 1   
    12     8    13 ar  
    13     8    29 1   
    14     9    12 ar  
    15     9    30 1   
    16    10    11 2   
    17    10    15 1   
    18    11    12 1   
    19    11    16 1   
    20    12    13 ar  
    21    14    22 1   
    22    14    31 1   
    23    14    32 1   
    24    16    17 ar  
    25    16    21 ar  
    26    17    18 ar  
    27    17    33 1   
    28    18    19 ar  
    29    18    34 1   
    30    19    20 ar  
    31    19    35 1   
    32    20    21 ar  
    33    20    36 1   
    34    22    23 ar  
    35    22    27 ar  
    36    23    24 ar  
    37    23    37 1   
    38    24    25 ar  
    39    24    38 1   
    40    25    26 ar  
    41    25    39 1   
    42    26    27 ar  
    43    26    40 1   
    44    27    41 1   
@<TRIPOS>SUBSTRUCTURE
     1 058         1 TEMP              0 ****  ****    0 ROOT
