@<TRIPOS>MOLECULE
058
   41    44     1     0     0
SMALL
bcc


@<TRIPOS>ATOM
      1 C1           0.4740     0.7930     0.3010 ca         1 058      -0.011600
      2 F1          -2.3960     2.1890     3.0170 f          1 058      -0.149900
      3 N1           1.7120    -0.1130     4.1510 na         1 058      -0.055400
      4 O1          -0.0180    -1.6810     6.6010 o          1 058      -0.800300
      5 Cl1         -0.1090     1.1630    -1.2660 cl         1 058      -0.149400
      6 C2           1.8600     0.6390     0.4810 ca         1 058      -0.139000
      7 O2           0.9100     0.2950     7.1100 o          1 058      -0.800300
      8 C3           2.3780     0.3360     1.7320 ca         1 058      -0.133000
      9 C4          -0.4310     0.6530     1.3480 ca         1 058      -0.085000
     10 C5           0.4790    -0.1840     4.8140 cc         1 058      -0.017300
     11 C6          -0.5580     0.1130     3.9080 cd         1 058      -0.148400
     12 C7           0.0580     0.3500     2.6170 ca         1 058      -0.048800
     13 C8           1.4870     0.1870     2.8030 ca         1 058      -0.056200
     14 C9           2.9920    -0.3400     4.7600 c3         1 058       0.078600
     15 C10          0.4350    -0.5430     6.3030 c          1 058       0.924800
     16 C11         -1.9700     0.1240     4.2050 ca         1 058       0.001200
     17 C12         -2.5160    -0.9060     4.9910 ca         1 058      -0.097000
     18 C13         -3.8750    -0.9520     5.2800 ca         1 058      -0.150000
     19 C14         -4.7330     0.0340     4.7940 ca         1 058      -0.133000
     20 C15         -4.2250     1.0780     4.0310 ca         1 058      -0.184000
     21 C16         -2.8470     1.1340     3.7410 ca         1 058       0.108900
     22 C17          3.5160    -1.7450     4.6350 ca         1 058      -0.106300
     23 C18          4.7030    -1.9940     3.9420 ca         1 058      -0.111500
     24 C19          5.2130    -3.2900     3.8670 ca         1 058      -0.142500
     25 C20          4.5330    -4.3430     4.4780 ca         1 058      -0.138000
     26 C21          3.3430    -4.0980     5.1640 ca         1 058      -0.142500
     27 C22          2.8320    -2.8030     5.2460 ca         1 058      -0.111500
     28 H2           2.5380     0.7580    -0.3760 ha         1 058       0.126000
     29 H3           3.4590     0.2070     1.8770 ha         1 058       0.126000
     30 H4          -1.5120     0.7900     1.1930 ha         1 058       0.147000
     31 H9           3.7300     0.3760     4.2970 h1         1 058       0.081700
     32 H9A          2.8870    -0.0930     5.8630 h1         1 058       0.081700
     33 H12         -1.8280    -1.6700     5.4060 ha         1 058       0.195000
     34 H13         -4.2710    -1.7680     5.9020 ha         1 058       0.124000
     35 H14         -5.8080    -0.0050     5.0200 ha         1 058       0.115000
     36 H15         -4.8830     1.8730     3.6540 ha         1 058       0.126000
     37 H18          5.2370    -1.1660     3.4510 ha         1 058       0.158000
     38 H19          6.1480    -3.4800     3.3220 ha         1 058       0.122000
     39 H20          4.9330    -5.3640     4.4160 ha         1 058       0.115000
     40 H21          2.8020    -4.9260     5.6440 ha         1 058       0.122000
     41 H22          1.8850    -2.6040     5.7900 ha         1 058       0.158000
@<TRIPOS>BOND
     1     1     5 1   
     2     1     6 ar  
     3     1     9 ar  
     4     2    21 1   
     5     3    10 1   
     6     3    13 1   
     7     3    14 1   
     8     4    15 1   
     9     6     8 ar  
    10     6    28 1   
    11     7    15 1   
    12     8    13 ar  
    13     8    29 1   
    14     9    12 ar  
    15     9    30 1   
    16    10    11 2   
    17    10    15 1   
    18    11    12 1   
    19    11    16 1   
    20    12    13 ar  
    21    14    22 1   
    22    14    31 1   
    23    14    32 1   
    24    16    17 ar  
    25    16    21 ar  
    26    17    18 ar  
    27    17    33 1   
    28    18    19 ar  
    29    18    34 1   
    30    19    20 ar  
    31    19    35 1   
    32    20    21 ar  
    33    20    36 1   
    34    22    23 ar  
    35    22    27 ar  
    36    23    24 ar  
    37    23    37 1   
    38    24    25 ar  
    39    24    38 1   
    40    25    26 ar  
    41    25    39 1   
    42    26    27 ar  
    43    26    40 1   
    44    27    41 1   
@<TRIPOS>SUBSTRUCTURE
     1 058         1 TEMP              0 ****  ****    0 ROOT
