@<TRIPOS>MOLECULE
molecule
   62    63     1     0     0
SMALL
bcc


@<TRIPOS>ATOM
      1 C36          0.0000     0.0000     0.0000 ca         1 059      -0.117500
      2 C37          1.3820     0.0000     0.0000 ca         1 059      -0.130500
      3 C38          2.0730     0.0000     1.1980 ca         1 059      -0.143000
      4 C39          1.3820     0.0020     2.3950 ca         1 059      -0.130500
      5 C40         -0.0000     0.0030     2.3940 ca         1 059      -0.117500
      6 C35         -0.6920    -0.0000     1.1980 ca         1 059      -0.052300
      7 C34         -2.1990     0.0010     1.1970 c3         1 059      -0.020100
      8 C33         -2.7090    -1.4410     1.1970 c3         1 059      -0.216600
      9 S32         -4.5240    -1.4410     1.1980 s6         1 059       1.328900
     10 O32         -5.0210    -0.9490     2.4350 o          1 059      -0.665800
     11 O33         -5.0210    -0.9510    -0.0400 o          1 059      -0.665800
     12 N31         -4.9360    -3.0440     1.1980 n7         1 059      -0.856100
     13 C27         -4.5850    -3.8920     2.3400 c3         1 059       0.074300
     14 C28         -5.8620    -4.3740     3.0300 c3         1 059      -0.067700
     15 C30         -6.5810    -3.1810     3.6640 c3         1 059      -0.096600
     16 C29         -6.7790    -5.0360     2.0010 c3         1 059      -0.096600
     17 P24         -3.6280    -5.3300     1.7580 p5         1 059       0.984400
     18 O25         -2.2130    -4.8330     1.1730 o          1 059      -0.784000
     19 O26         -4.3840    -6.0270     0.6940 o          1 059      -0.784000
     20 C15         -3.3420    -6.4730     3.1500 c3         1 059      -0.242600
     21 C1          -2.6190    -7.7230     2.6420 c3         1 059      -0.116400
     22 C2          -3.5910    -8.5940     1.8900 c          1 059       0.895600
     23 O14         -3.1770    -9.7530     1.3520 o          1 059      -0.815800
     24 O13         -4.7440    -8.2510     1.7720 o          1 059      -0.815800
     25 C3          -2.0590    -8.4880     3.8130 ca         1 059       0.042700
     26 C8          -0.6980    -8.7070     3.9080 ca         1 059      -0.104000
     27 C4          -2.9060    -8.9680     4.7950 ca         1 059      -0.059000
     28 C5          -2.3920    -9.6710     5.8690 ca         1 059      -0.134000
     29 C6          -1.0320    -9.8950     5.9600 ca         1 059      -0.160000
     30 C7          -0.1830    -9.4090     4.9820 ca         1 059      -0.218300
     31 C9           1.3010    -9.6480     5.0860 c3         1 059       0.161100
     32 N10          1.9240    -8.5430     5.8260 nz         1 059      -0.813600
     33 H36         -0.5410    -0.0010    -0.9380 ha         1 059       0.132500
     34 H37          1.9240    -0.0010    -0.9380 ha         1 059       0.118000
     35 H38          3.1560    -0.0000     1.1980 ha         1 059       0.114000
     36 H39          1.9240     0.0030     3.3330 ha         1 059       0.118000
     37 H40         -0.5420     0.0040     3.3330 ha         1 059       0.132500
     38 H341        -2.5600     0.5120     2.0810 hc         1 059       0.049200
     39 H342        -2.5590     0.5120     0.3120 hc         1 059       0.049200
     40 H331        -2.3470    -1.9520     2.0820 h1         1 059       0.123700
     41 H332        -2.3480    -1.9520     0.3130 h1         1 059       0.123700
     42 HN31        -5.4120    -3.4380     0.4110 hn         1 059       0.475800
     43 H27         -3.9880    -3.3220     3.0430 h1         1 059       0.037700
     44 H28         -5.6070    -5.0920     3.8010 hc         1 059       0.037700
     45 H301        -5.8680    -2.5800     4.2160 hc         1 059       0.037033
     46 H302        -7.0360    -2.5790     2.8860 hc         1 059       0.037033
     47 H303        -7.3500    -3.5390     4.3380 hc         1 059       0.037033
     48 H291        -6.2790    -5.8960     1.5710 hc         1 059       0.037033
     49 H292        -7.6940    -5.3550     2.4850 hc         1 059       0.037033
     50 H293        -7.0140    -4.3260     1.2170 hc         1 059       0.037033
     51 H151        -2.7330    -5.9840     3.9000 hc         1 059       0.031200
     52 H152        -4.2920    -6.7570     3.5850 hc         1 059       0.031200
     53 H1          -1.8120    -7.4310     1.9820 hc         1 059       0.080700
     54 H8          -0.0330    -8.3270     3.1420 ha         1 059       0.138000
     55 H4          -3.9730    -8.7920     4.7230 ha         1 059       0.174000
     56 H5          -3.0560   -10.0490     6.6370 ha         1 059       0.126000
     57 H6          -0.6290   -10.4450     6.8020 ha         1 059       0.096000
     58 H91          1.7280    -9.7040     4.0920 hx         1 059       0.097200
     59 H92          1.4810   -10.5800     5.6090 hx         1 059       0.097200
     60 H101         2.6630    -8.9000     6.4000 hn         1 059       0.442467
     61 H102         1.2380    -8.0990     6.4030 hn         1 059       0.442467
     62 H103         2.2970    -7.8770     5.1790 hn         1 059       0.442467
@<TRIPOS>BOND
     1     1     2 ar
     2     1     6 ar
     3     1    33 1
     4     2     3 ar
     5     2    34 1
     6     3     4 ar
     7     3    35 1
     8     4     5 ar
     9     4    36 1
    10     5     6 ar
    11     5    37 1
    12     6     7 1
    13     7     8 1
    14     7    38 1
    15     7    39 1
    16     8     9 1
    17     8    40 1
    18     8    41 1
    19     9    12 1
    20     9    11 2
    21     9    10 2
    22    12    13 1
    23    12    42 1
    24    13    17 1
    25    13    14 1
    26    13    43 1
    27    14    15 1
    28    14    16 1
    29    14    44 1
    30    15    45 1
    31    15    46 1
    32    15    47 1
    33    16    48 1
    34    16    49 1
    35    16    50 1
    36    17    20 1
    37    17    19 1
    38    17    18 1
    39    20    21 1
    40    20    51 1
    41    20    52 1
    42    21    25 1
    43    21    22 1
    44    21    53 1
    45    22    23 1
    46    22    24 1
    47    25    27 ar
    48    25    26 ar
    49    26    30 ar
    50    26    54 1
    51    27    28 ar
    52    27    55 1
    53    28    29 ar
    54    28    56 1
    55    29    30 ar
    56    29    57 1
    57    30    31 1
    58    31    32 1
    59    31    58 1
    60    31    59 1
    61    32    60 1
    62    32    61 1
    63    62    32 1
@<TRIPOS>SUBSTRUCTURE
     1 059         1 TEMP              0 ****  ****    0 ROOT
