@<TRIPOS>MOLECULE
059
   63    64     1     0     0
SMALL
bcc


@<TRIPOS>ATOM
      1 C36         -0.5340     1.2310    -0.1760 ca         1 059      -0.115500
      2 C37          0.8020     1.3190     0.2150 ca         1 059      -0.130000
      3 C38          1.3470     0.3760     1.0840 ca         1 059      -0.129000
      4 C39          0.5490    -0.6610     1.5690 ca         1 059      -0.130000
      5 C40         -0.7860    -0.7530     1.1830 ca         1 059      -0.115500
      6 C35         -1.3380     0.1920     0.3060 ca         1 059      -0.113300
      7 C34         -2.7510     0.0190    -0.1340 c3         1 059       0.016900
      8 C33         -3.5750     1.2900    -0.1750 c3         1 059      -0.383600
      9 S32         -4.2020     1.7840     1.2800 s6         1 059       1.398900
     10 O32         -3.3670     1.5580     2.3790 o          1 059      -0.605800
     11 O33         -5.5340     1.4810     1.5240 o          1 059      -0.605800
     12 N31         -4.0500     3.6390     1.1980 ny         1 059      -0.681900
     13 C27         -5.3100     4.3880     1.0540 c3         1 059      -0.107700
     14 C28         -5.3550     5.8090     1.6040 c3         1 059      -0.059700
     15 C30         -4.0390     6.3490     2.1270 c3         1 059      -0.104100
     16 C29         -6.4050     5.9220     2.6960 c3         1 059      -0.104100
     17 P24         -5.7260     4.4090    -0.6560 p5         1 059       1.307400
     18 O25         -7.0140     5.0460    -1.0700 o          1 059      -0.905500
     19 O26         -5.5900     2.9470    -0.9300 o          1 059      -0.905500
     20 C15         -4.4710     5.3320    -1.2740 c3         1 059      -0.405600
     21 C1          -3.8250     4.5830    -2.4290 c3         1 059      -0.156400
     22 C2          -2.3200     4.4000    -2.1370 c          1 059       0.937600
     23 O14         -2.0630     3.9620    -0.9570 o          1 059      -0.833800
     24 O13         -1.4470     4.5990    -3.0070 o          1 059      -0.833800
     25 C3          -4.2870     5.0460    -3.7700 ca         1 059      -0.001300
     26 C8          -5.5880     5.5600    -3.8340 ca         1 059      -0.176000
     27 C4          -3.6390     4.7680    -4.9810 ca         1 059      -0.080000
     28 C5          -4.3430     4.8860    -6.1830 ca         1 059      -0.129000
     29 C6          -5.7050     5.2030    -6.2060 ca         1 059      -0.118000
     30 C7          -6.3390     5.5300    -5.0060 ca         1 059      -0.174300
     31 C9          -7.8090     5.7530    -4.8570 c3         1 059       0.188100
     32 N10         -8.3390     5.0450    -3.6420 nz         1 059      -0.860600
     33 H36         -0.9400     2.0050    -0.8570 ha         1 059       0.153500
     34 H37          1.4220     2.1440    -0.1680 ha         1 059       0.134000
     35 H38          2.4010     0.4490     1.3890 ha         1 059       0.127000
     36 H39          0.9720    -1.4050     2.2590 ha         1 059       0.134000
     37 H40         -1.4100    -1.5700     1.5730 ha         1 059       0.153500
     38 H341        -3.2670    -0.7350     0.5220 hc         1 059       0.056700
     39 H342        -2.7370    -0.4110    -1.1750 hc         1 059       0.056700
     40 H331        -2.9510     2.0790    -0.7170 h1         1 059       0.205200
     41 H332        -4.4260     1.1390    -0.9190 h1         1 059       0.205200
     42 HN31        -3.5700     3.9370     2.0500 hn         1 059       0.469800
     43 H27         -6.1040     3.7780     1.5830 hx         1 059       0.125700
     44 H28         -5.6800     6.4750     0.7490 hc         1 059       0.061700
     45 H301        -3.7240     5.8170     3.0580 hc         1 059       0.045367
     46 H302        -4.1620     7.4300     2.3840 hc         1 059       0.045367
     47 H303        -3.2230     6.2710     1.3690 hc         1 059       0.045367
     48 H291        -6.1420     5.2700     3.5640 hc         1 059       0.045367
     49 H292        -6.4690     6.9780     3.0540 hc         1 059       0.045367
     50 H293        -7.4090     5.6180     2.3130 hc         1 059       0.045367
     51 H151        -4.8100     6.3510    -1.5930 hc         1 059       0.097700
     52 H152        -3.6590     5.5960    -0.5430 hc         1 059       0.097700
     53 H1          -4.1870     3.4980    -2.4060 hc         1 059       0.097700
     54 H8          -6.0620     5.9170    -2.9010 ha         1 059       0.147000
     55 H4          -2.5780     4.4510    -4.9570 ha         1 059       0.198000
     56 H5          -3.8240     4.6820    -7.1320 ha         1 059       0.139000
     57 H6          -6.2620     5.1900    -7.1530 ha         1 059       0.127000
     58 H91         -8.3640     5.3650    -5.7570 hx         1 059       0.087700
     59 H92         -8.0350     6.8500    -4.7250 hx         1 059       0.087700
     60 H101        -9.3550     5.0520    -3.6400 hn         1 059       0.472133
     61 H102        -7.9990     4.0780    -3.6250 hn         1 059       0.472133
     62 H103        -7.9900     5.4820    -2.7520 hn         1 059       0.472133
     63 H312        -3.4120     3.8940     0.4020 hn         1 059       0.469800
@<TRIPOS>BOND
     1     1     2 ar  
     2     1     6 ar  
     3     1    33 1   
     4     2     3 ar  
     5     2    34 1   
     6     3     4 ar  
     7     3    35 1   
     8     4     5 ar  
     9     4    36 1   
    10     5     6 ar  
    11     5    37 1   
    12     6     7 1   
    13     7     8 1   
    14     7    38 1   
    15     7    39 1   
    16     8     9 1   
    17     8    40 1   
    18     8    41 1   
    19     9    10 2   
    20     9    11 2   
    21     9    12 1   
    22    12    13 1   
    23    12    42 1   
    24    12    63 1   
    25    13    14 1   
    26    13    17 1   
    27    13    43 1   
    28    14    15 1   
    29    14    16 1   
    30    14    44 1   
    31    15    45 1   
    32    15    46 1   
    33    15    47 1   
    34    16    48 1   
    35    16    49 1   
    36    16    50 1   
    37    17    18 1   
    38    17    19 1   
    39    17    20 1   
    40    20    21 1   
    41    20    51 1   
    42    20    52 1   
    43    21    22 1   
    44    21    25 1   
    45    21    53 1   
    46    22    23 1   
    47    22    24 1   
    48    25    26 ar  
    49    25    27 ar  
    50    26    30 ar  
    51    26    54 1   
    52    27    28 ar  
    53    27    55 1   
    54    28    29 ar  
    55    28    56 1   
    56    29    30 ar  
    57    29    57 1   
    58    30    31 1   
    59    31    32 1   
    60    31    58 1   
    61    31    59 1   
    62    32    60 1   
    63    32    61 1   
    64    32    62 1   
@<TRIPOS>SUBSTRUCTURE
     1 059         1 TEMP              0 ****  ****    0 ROOT
