@<TRIPOS>MOLECULE
05B
   51    56     1     0     0
SMALL
bcc


@<TRIPOS>ATOM
      1 C1          -0.0490     0.0010     0.0650 c3         1 05B       0.009300
      2 C2          -0.4030     1.4660     0.4520 c3         1 05B       0.106000
      3 N3          -0.2660     2.4400    -0.5940 ns         1 05B      -0.575900
      4 C4          -0.7020     2.1890    -1.8950 c          1 05B       0.740100
      5 N5           1.4650    -1.0010     2.3790 n7         1 05B      -0.823200
      6 C6           1.4680    -0.2040     0.0180 c3         1 05B      -0.073900
      7 C7          -0.6580    -0.9440     1.1020 c3         1 05B      -0.073900
      8 C8           0.0320    -0.8100     2.4590 c3         1 05B       0.163300
      9 C9           2.1170    -0.1550     1.4000 c3         1 05B       0.163300
     10 O10         -0.8380     3.1330    -2.6970 o          1 05B      -0.639500
     11 C11         -0.6120    -0.2530    -1.2970 cc         1 05B      -0.048600
     12 C12         -0.9130     0.7830    -2.2210 cd         1 05B      -0.226600
     13 C13         -1.3920     0.1730    -3.4150 cd         1 05B      -0.076000
     14 C14         -1.3710    -1.2220    -3.1950 cc         1 05B      -0.221800
     15 N15         -0.8860    -1.4610    -1.8960 na         1 05B      -0.119100
     16 C16         -1.7700    -2.2810    -4.1110 ca         1 05B       0.534800
     17 C17         -2.2720    -1.9370    -5.3890 ca         1 05B      -0.358600
     18 C18         -2.6490    -2.9970    -6.2310 ca         1 05B       0.437200
     19 N19         -2.5500    -4.2900    -5.8740 nb         1 05B      -0.696000
     20 C20         -2.0480    -4.5360    -4.6170 cp         1 05B       0.713500
     21 N21         -1.6540    -3.5820    -3.7210 nb         1 05B      -0.722000
     22 C22         -1.9230    -5.9580    -4.1980 cp         1 05B      -0.143500
     23 C23         -2.9440    -6.8600    -4.5090 ca         1 05B      -0.086000
     24 C24         -2.8750    -8.2140    -4.1350 ca         1 05B      -0.125000
     25 C25         -0.7650    -6.3590    -3.4930 ca         1 05B      -0.075000
     26 C26         -0.7070    -7.6880    -3.1330 ca         1 05B       0.041100
     27 C27         -1.7450    -8.6040    -3.4470 ca         1 05B       0.072100
     28 O28         -1.4100    -9.8620    -2.9610 os         1 05B      -0.332900
     29 C29         -0.1170    -9.7340    -2.3220 c3         1 05B       0.321200
     30 O30          0.3020    -8.3550    -2.4420 os         1 05B      -0.332900
     31 H2          -1.4670     1.4660     0.8370 h1         1 05B       0.042700
     32 H2A          0.2700     1.7740     1.3020 h1         1 05B       0.042700
     33 HN3         -0.1920     3.3900    -0.3110 hn         1 05B       0.317500
     34 HN5          1.8820    -0.8690     3.2810 hn         1 05B       0.368800
     35 H6           1.9350     0.5890    -0.6220 hc         1 05B       0.058450
     36 H6A          1.6810    -1.1990    -0.4530 hc         1 05B       0.058450
     37 H7          -1.7500    -0.7280     1.2290 hc         1 05B       0.058450
     38 H7A         -0.5550    -2.0030     0.7500 hc         1 05B       0.058450
     39 H8          -0.2440     0.1940     2.9000 h1         1 05B       0.032200
     40 H8A         -0.3740    -1.6040     3.1480 h1         1 05B       0.032200
     41 H9           2.1640     0.9240     1.7370 h1         1 05B       0.032200
     42 H9A          3.1800    -0.5190     1.3040 h1         1 05B       0.032200
     43 H13         -1.7070     0.6930    -4.3160 ha         1 05B       0.172000
     44 HN15        -0.7680    -2.3570    -1.4920 hn         1 05B       0.319700
     45 H17         -2.3640    -0.8930    -5.7070 ha         1 05B       0.162000
     46 H18         -3.0490    -2.8050    -7.2440 h4         1 05B       0.032100
     47 H23         -3.8320    -6.5180    -5.0650 ha         1 05B       0.155000
     48 H24         -3.6800    -8.9180    -4.3810 ha         1 05B       0.159000
     49 H25          0.0410    -5.6550    -3.2480 ha         1 05B       0.166000
     50 H29         -0.2310    -9.9800    -1.2380 h2         1 05B       0.073200
     51 H29A         0.6150   -10.3790    -2.8670 h2         1 05B       0.073200
@<TRIPOS>BOND
     1     1     2 1   
     2     1     6 1   
     3     1     7 1   
     4     1    11 1   
     5     2     3 1   
     6     2    31 1   
     7     2    32 1   
     8     3     4 1   
     9     3    33 1   
    10     4    10 2   
    11     4    12 1   
    12     5     8 1   
    13     5     9 1   
    14     5    34 1   
    15     6     9 1   
    16     6    35 1   
    17     6    36 1   
    18     7     8 1   
    19     7    37 1   
    20     7    38 1   
    21     8    39 1   
    22     8    40 1   
    23     9    41 1   
    24     9    42 1   
    25    11    12 2   
    26    11    15 1   
    27    12    13 1   
    28    13    14 2   
    29    13    43 1   
    30    14    15 1   
    31    14    16 1   
    32    15    44 1   
    33    16    17 ar  
    34    16    21 ar  
    35    17    18 ar  
    36    17    45 1   
    37    18    19 ar  
    38    18    46 1   
    39    19    20 ar  
    40    20    21 ar  
    41    20    22 1   
    42    22    23 ar  
    43    22    25 ar  
    44    23    24 ar  
    45    23    47 1   
    46    24    27 ar  
    47    24    48 1   
    48    25    26 ar  
    49    25    49 1   
    50    26    27 ar  
    51    26    30 1   
    52    27    28 1   
    53    28    29 1   
    54    29    30 1   
    55    29    50 1   
    56    29    51 1   
@<TRIPOS>SUBSTRUCTURE
     1 05B         1 TEMP              0 ****  ****    0 ROOT
