@<TRIPOS>MOLECULE
molecule
   51    56     1     0     0
SMALL
bcc


@<TRIPOS>ATOM
      1 C1           0.0000     0.0000     0.0000 c3         1 05B      -0.005700
      2 C2          -0.5140     1.2790     0.6600 c3         1 05B       0.122000
      3 N3          -1.9330     1.5070     0.4230 ns         1 05B      -0.592900
      4 C4          -2.5270     1.2450    -0.7660 c          1 05B       0.751100
      5 N5           1.5250    -1.1870     2.1420 n7         1 05B      -0.820200
      6 C6           1.5300     0.0000     0.0000 c3         1 05B      -0.070400
      7 C7          -0.5060    -1.2190     0.7740 c3         1 05B      -0.070400
      8 C8           0.0580    -1.1830     2.1960 c3         1 05B       0.155300
      9 C9           2.0350     0.0000     1.4450 c3         1 05B       0.155300
     10 O10         -3.6770     1.5730    -0.9910 o          1 05B      -0.634500
     11 C11         -0.5060    -0.0550    -1.4180 cc         1 05B      -0.065600
     12 C12         -1.7110     0.5430    -1.7720 cd         1 05B      -0.243600
     13 C13         -1.9040     0.3240    -3.1410 cd         1 05B      -0.050000
     14 C14         -0.8280    -0.3930    -3.5790 cc         1 05B      -0.232800
     15 N15          0.0150    -0.6150    -2.5110 na         1 05B      -0.113100
     16 C16         -0.6050    -0.8520    -4.9650 ca         1 05B       0.569800
     17 C17          0.5430    -1.5840    -5.2950 ca         1 05B      -0.405600
     18 C18          0.7090    -1.9920    -6.6050 ca         1 05B       0.475200
     19 N19         -0.2130    -1.6840    -7.5030 nb         1 05B      -0.745000
     20 C20         -1.2910    -0.9890    -7.1640 cp         1 05B       0.766500
     21 N21         -1.4940    -0.5810    -5.9200 nb         1 05B      -0.732000
     22 C22         -2.2980    -0.6660    -8.2030 cp         1 05B      -0.149500
     23 C23         -3.4380     0.0630    -7.8660 ca         1 05B      -0.075000
     24 C24         -4.3750     0.3630    -8.8340 ca         1 05B      -0.131000
     25 C25         -2.1040    -1.0850    -9.5180 ca         1 05B      -0.069000
     26 C26         -3.0440    -0.7820   -10.4840 ca         1 05B       0.031100
     27 C27         -4.1870    -0.0580   -10.1420 ca         1 05B       0.069100
     28 O28         -4.9490     0.1060   -11.2620 os         1 05B      -0.325900
     29 C29         -4.4730    -0.8760   -12.1990 c3         1 05B       0.331200
     30 O30         -3.0950    -1.0690   -11.8180 os         1 05B      -0.325900
     31 H2           0.0440     2.1210     0.2680 h1         1 05B       0.048700
     32 H2A         -0.3470     1.2100     1.7280 h1         1 05B       0.048700
     33 HN3         -2.4920     1.8730     1.1680 hn         1 05B       0.324500
     34 HN5          1.8930    -1.2120     3.0730 hn         1 05B       0.358800
     35 H6           1.8910    -0.8860    -0.5080 hc         1 05B       0.057950
     36 H6A          1.8910     0.8860    -0.5080 hc         1 05B       0.057950
     37 H7          -0.1760    -2.1240     0.2780 hc         1 05B       0.057950
     38 H7A         -1.5880    -1.1970     0.8150 hc         1 05B       0.057950
     39 H8          -0.2810    -0.2830     2.6950 h1         1 05B       0.036200
     40 H8A         -0.2850    -2.0540     2.7410 h1         1 05B       0.036200
     41 H9           3.1180    -0.0190     1.4480 h1         1 05B       0.036200
     42 H9A          1.6830     0.8920     1.9490 h1         1 05B       0.036200
     43 H13         -2.7440     0.6580    -3.7380 ha         1 05B       0.182000
     44 HN15         0.8810    -1.1160    -2.5500 hn         1 05B       0.299700
     45 H17          1.2840    -1.8240    -4.5410 ha         1 05B       0.134000
     46 H18          1.5860    -2.5600    -6.8940 h4         1 05B       0.030100
     47 H23         -3.6010     0.3720    -6.8410 ha         1 05B       0.165000
     48 H24         -5.2600     0.9300    -8.5710 ha         1 05B       0.149000
     49 H25         -1.1940    -1.6050    -9.7920 ha         1 05B       0.167000
     50 H29         -4.5250    -0.4790   -13.2060 h2         1 05B       0.072200
     51 H29A        -5.0230    -1.8010   -12.0740 h2         1 05B       0.072200
@<TRIPOS>BOND
     1     1     2 1
     2     1     6 1
     3     1     7 1
     4     1    11 1
     5     2     3 1
     6     3     4 1
     7     4    10 2
     8     4    12 1
     9     5     8 1
    10     5     9 1
    11     6     9 1
    12     7     8 1
    13    11    12 2
    14    11    15 1
    15    12    13 1
    16    13    14 2
    17    14    15 1
    18    14    16 1
    19    16    17 ar
    20    16    21 ar
    21    17    18 ar
    22    18    19 ar
    23    19    20 ar
    24    20    21 ar
    25    20    22 1
    26    22    23 ar
    27    22    25 ar
    28    23    24 ar
    29    24    27 ar
    30    25    26 ar
    31    26    27 ar
    32    26    30 1
    33    27    28 1
    34    28    29 1
    35    29    30 1
    36     2    31 1
    37     2    32 1
    38     3    33 1
    39     5    34 1
    40     6    35 1
    41     6    36 1
    42     7    37 1
    43     7    38 1
    44     8    39 1
    45     8    40 1
    46     9    41 1
    47     9    42 1
    48    13    43 1
    49    15    44 1
    50    17    45 1
    51    18    46 1
    52    23    47 1
    53    24    48 1
    54    25    49 1
    55    29    50 1
    56    29    51 1
@<TRIPOS>SUBSTRUCTURE
     1 05B         1 TEMP              0 ****  ****    0 ROOT
