@<TRIPOS>MOLECULE
molecule
   45    45     1     0     0
SMALL
bcc


@<TRIPOS>ATOM
      1 SE           0.0000     0.0000     0.0000 ss         1 05L      -0.441200
      2 C1           1.9610     0.0000     0.0000 c3         1 05L       0.282200
      3 C2           2.4710     0.0000     1.4430 c3         1 05L       0.114100
      4 O2           2.0430     1.1950     2.1010 oh         1 05L      -0.592800
      5 C3           4.0010    -0.0600     1.4350 c3         1 05L       0.126100
      6 O3           4.4840    -0.1340     2.7780 oh         1 05L      -0.600800
      7 C4           4.4480    -1.3050     0.6610 c3         1 05L       0.106100
      8 O4           5.8750    -1.3340     0.5850 oh         1 05L      -0.601800
      9 C5           3.8610    -1.2550    -0.7520 c3         1 05L       0.141100
     10 O5           2.4370    -1.1680    -0.6720 os         1 05L      -0.399600
     11 C6           4.2520    -2.5230    -1.5130 c3         1 05L       0.152400
     12 O6           3.8050    -2.4250    -2.8660 oh         1 05L      -0.602800
     13 C1'         -0.3740    -0.0010    -1.9240 c3         1 05L       0.096700
     14 C2'         -1.8870    -0.0010    -2.1490 c3         1 05L      -0.080400
     15 C3'         -2.1790    -0.0020    -3.6510 c3         1 05L      -0.080400
     16 C4'         -3.6920    -0.0010    -3.8770 c3         1 05L      -0.081400
     17 C5'         -3.9840    -0.0020    -5.3790 c3         1 05L      -0.081400
     18 C6'         -5.4980    -0.0020    -5.6030 c3         1 05L      -0.084400
     19 C7'         -5.7900    -0.0030    -7.1050 c3         1 05L      -0.092100
     20 H1           2.3270     0.8830    -0.5110 h2         1 05L       0.067700
     21 H2           2.0800    -0.8660     1.9640 h1         1 05L       0.066700
     22 HO2          1.3620     0.9870     2.7180 ho         1 05L       0.417000
     23 H3           4.3950     0.8260     0.9520 h1         1 05L       0.060700
     24 HO3          5.0050     0.6280     2.9680 ho         1 05L       0.416000
     25 H4           4.0890    -2.1920     1.1680 h1         1 05L       0.058700
     26 HO4          6.2100    -1.9530     1.2130 ho         1 05L       0.414000
     27 H5           4.2450    -0.3850    -1.2700 h1         1 05L       0.063700
     28 H6           3.7910    -3.3840    -1.0420 h1         1 05L       0.037200
     29 H6A          5.3300    -2.6370    -1.4950 h1         1 05L       0.037200
     30 HO6          4.1130    -3.1710    -3.3540 ho         1 05L       0.404000
     31 H1'          0.0580    -0.8850    -2.3760 h1         1 05L       0.065700
     32 H1'A         0.0580     0.8840    -2.3770 h1         1 05L       0.065700
     33 H2'         -2.3190     0.8840    -1.6970 hc         1 05L       0.054200
     34 H2'A        -2.3190    -0.8850    -1.6960 hc         1 05L       0.054200
     35 H3'         -1.7470    -0.8860    -4.1020 hc         1 05L       0.043700
     36 H3'A        -1.7460     0.8830    -4.1030 hc         1 05L       0.043700
     37 H4'         -4.1250    -0.8860    -3.4250 hc         1 05L       0.042700
     38 H4'A        -4.1250     0.8830    -3.4250 hc         1 05L       0.042700
     39 H5'         -3.5520     0.8820    -5.8310 hc         1 05L       0.041700
     40 H5'A        -3.5520    -0.8870    -5.8300 hc         1 05L       0.041700
     41 H6'         -5.9300    -0.8870    -5.1510 hc         1 05L       0.040700
     42 H6'A        -5.9300     0.8820    -5.1520 hc         1 05L       0.040700
     43 H7'         -5.3570    -0.8880    -7.5570 hc         1 05L       0.032700
     44 H7'A        -6.8610    -0.0030    -7.2650 hc         1 05L       0.032700
     45 H7'B        -5.3570     0.8810    -7.5580 hc         1 05L       0.032700
@<TRIPOS>BOND
     1     2     1 1
     2    13     1 1
     3     2     3 1
     4     2    10 1
     5     2    20 1
     6     4     3 1
     7     5     3 1
     8     3    21 1
     9     4    22 1
    10     5     6 1
    11     5     7 1
    12     5    23 1
    13     6    24 1
    14     9     7 1
    15     8     7 1
    16     7    25 1
    17     8    26 1
    18     9    10 1
    19     9    11 1
    20     9    27 1
    21    11    12 1
    22    11    28 1
    23    11    29 1
    24    12    30 1
    25    13    14 1
    26    13    31 1
    27    13    32 1
    28    14    15 1
    29    14    33 1
    30    14    34 1
    31    15    16 1
    32    15    35 1
    33    15    36 1
    34    16    17 1
    35    16    37 1
    36    16    38 1
    37    17    18 1
    38    17    39 1
    39    17    40 1
    40    18    19 1
    41    18    41 1
    42    18    42 1
    43    19    43 1
    44    19    44 1
    45    19    45 1
@<TRIPOS>SUBSTRUCTURE
     1 05L         1 TEMP              0 ****  ****    0 ROOT
