@<TRIPOS>MOLECULE
molecule
   17    17     1     0     0
SMALL
bcc


@<TRIPOS>ATOM
      1 CBE          0.0000     0.0000     0.0000 c          1 05R       0.892600
      2 OBF          1.2080     0.0000     0.0000 o          1 05R      -0.838300
      3 CBG         -0.7540     0.0000     1.3050 c3         1 05R      -0.156100
      4 CBH          0.2250    -0.0070     2.4500 ca         1 05R       0.008700
      5 CBI          0.6740    -1.2070     2.9690 ca         1 05R      -0.115000
      6 CBJ          1.5720    -1.2150     4.0200 ca         1 05R      -0.120000
      7 CBK          2.0230    -0.0210     4.5530 ca         1 05R       0.004400
      8 ClL          3.1520    -0.0310     5.8720 cl         1 05R      -0.138400
      9 CBM          1.5740     1.1810     4.0330 ca         1 05R       0.035400
     10 ClN          2.1390     2.6810     4.7020 cl         1 05R      -0.132400
     11 CBO          0.6800     1.1870     2.9790 ca         1 05R      -0.109000
     12 HBG         -1.3730     0.8870     1.3650 hc         1 05R       0.044200
     13 HBGA        -1.3800    -0.8820     1.3610 hc         1 05R       0.044200
     14 HBI          0.3210    -2.1420     2.5520 ha         1 05R       0.139000
     15 HBJ          1.9230    -2.1570     4.4250 ha         1 05R       0.130000
     16 HBO          0.3290     2.1280     2.5730 ha         1 05R       0.149000
     17 OXT         -0.6720     0.0060    -1.1630 o          1 05R      -0.838300
@<TRIPOS>BOND
     1     2     1 1   
     2     1     3 1   
     3     3     4 1   
     4     3    12 1   
     5     3    13 1   
     6     5     4 ar  
     7     4    11 ar  
     8     5     6 ar  
     9     5    14 1   
    10     6     7 ar  
    11     6    15 1   
    12     7     8 1   
    13     7     9 ar  
    14    11     9 ar  
    15     9    10 1   
    16    11    16 1   
    17     1    17 1   
@<TRIPOS>SUBSTRUCTURE
     1 05R         1 TEMP              0 ****  ****    0 ROOT
