@<TRIPOS>MOLECULE
05R
   17    17     1     0     0
SMALL
bcc


@<TRIPOS>ATOM
      1 CBE          0.0000     0.0000     0.0000 c          1 05R       0.980600
      2 OBF          1.2080     0.0000     0.0000 o          1 05R      -0.890800
      3 CBG         -0.7540     0.0000     1.3050 c3         1 05R      -0.098100
      4 CBH          0.2250    -0.0070     2.4500 ca         1 05R       0.016700
      5 CBI          0.6740    -1.2070     2.9690 ca         1 05R      -0.088000
      6 CBJ          1.5720    -1.2150     4.0200 ca         1 05R      -0.099000
      7 CBK          2.0230    -0.0210     4.5530 ca         1 05R      -0.056600
      8 ClL          3.1520    -0.0310     5.8720 cl         1 05R      -0.065400
      9 CBM          1.5740     1.1810     4.0330 ca         1 05R      -0.024600
     10 ClN          2.1390     2.6810     4.7020 cl         1 05R      -0.058400
     11 CBO          0.6800     1.1870     2.9790 ca         1 05R      -0.087000
     12 HBG         -1.3730     0.8870     1.3650 hc         1 05R       0.015700
     13 HBGA        -1.3800    -0.8820     1.3610 hc         1 05R       0.015700
     14 HBI          0.3210    -2.1420     2.5520 ha         1 05R       0.110000
     15 HBJ          1.9230    -2.1570     4.4250 ha         1 05R       0.101000
     16 HBO          0.3290     2.1280     2.5730 ha         1 05R       0.120000
     17 OXT         -0.6720     0.0060    -1.1630 o          1 05R      -0.890800
@<TRIPOS>BOND
     1     1     2 1   
     2     1     3 1   
     3     1    17 1   
     4     3     4 1   
     5     3    12 1   
     6     3    13 1   
     7     4     5 ar  
     8     4    11 ar  
     9     5     6 ar  
    10     5    14 1   
    11     6     7 ar  
    12     6    15 1   
    13     7     8 1   
    14     7     9 ar  
    15     9    10 1   
    16     9    11 ar  
    17    11    16 1   
@<TRIPOS>SUBSTRUCTURE
     1 05R         1 TEMP              0 ****  ****    0 ROOT
