@<TRIPOS>MOLECULE
05R
   17    17     1     0     0
SMALL
bcc


@<TRIPOS>ATOM
      1 CBE          0.1820    -0.5360     0.2590 c          1 05R       0.919600
      2 OBF          1.1160    -1.1920     0.8010 o          1 05R      -0.834800
      3 CBG         -0.9280     0.0450     1.1720 c3         1 05R      -0.183100
      4 CBH         -0.4390     1.0680     2.1240 ca         1 05R      -0.000300
      5 CBI          0.7350     0.8470     2.8640 ca         1 05R      -0.115000
      6 CBJ          1.1790     1.7870     3.7850 ca         1 05R      -0.128000
      7 CBK          0.4570     2.9700     3.9870 ca         1 05R      -0.009600
      8 ClL          1.0190     4.0990     5.1350 cl         1 05R      -0.125400
      9 CBM         -0.7050     3.2050     3.2450 ca         1 05R       0.017400
     10 ClN         -1.6060     4.6400     3.4560 cl         1 05R      -0.124400
     11 CBO         -1.1480     2.2590     2.3160 ca         1 05R      -0.145000
     12 HBG         -1.7380     0.4660     0.5240 hc         1 05R       0.043700
     13 HBGA        -1.3530    -0.8140     1.7560 hc         1 05R       0.043700
     14 HBI          1.3080    -0.0810     2.6630 ha         1 05R       0.201000
     15 HBJ          2.1020     1.6060     4.3550 ha         1 05R       0.134000
     16 HBO         -2.0570     2.4550     1.7270 ha         1 05R       0.141000
     17 OXT          0.0620    -0.3510    -0.9820 o          1 05R      -0.834800
@<TRIPOS>BOND
     1     1     2 1   
     2     1     3 1   
     3     1    17 1   
     4     3     4 1   
     5     3    12 1   
     6     3    13 1   
     7     4     5 ar  
     8     4    11 ar  
     9     5     6 ar  
    10     5    14 1   
    11     6     7 ar  
    12     6    15 1   
    13     7     8 1   
    14     7     9 ar  
    15     9    10 1   
    16     9    11 ar  
    17    11    16 1   
@<TRIPOS>SUBSTRUCTURE
     1 05R         1 TEMP              0 ****  ****    0 ROOT
