@<TRIPOS>MOLECULE
05T
   32    32     1     0     0
SMALL
bcc


@<TRIPOS>ATOM
      1 CAA          0.0000     0.0000     0.0000 c3         1 05T      -0.031900
      2 CAB          1.5300     0.0000     0.0000 c3         1 05T       0.136500
      3 NAC          2.0190     1.1950    -0.6910 nu         1 05T      -0.423200
      4 CAD          3.2660     1.1930    -1.2700 c2         1 05T       0.259100
      5 NAE          3.7250     2.3150    -1.9180 nz         1 05T       0.126400
      6 NAF          4.0130     0.1270    -1.2050 n2         1 05T      -0.598100
      7 CAG          2.0390     0.0000     1.4430 c3         1 05T      -0.031900
      8 CAH          1.5290    -1.2490     2.1650 c3         1 05T      -0.012400
      9 CAI         -0.0010    -1.2480     2.1640 c3         1 05T      -0.074700
     10 CAJ         -0.5110    -1.2480     0.7210 c3         1 05T      -0.012400
     11 CAK         -0.5120    -2.4970     2.8860 c3         1 05T      -0.045200
     12 NAL         -1.9760    -2.4370     2.9910 nz         1 05T       0.081400
     13 HAA         -0.3600    -0.0030    -1.0220 hc         1 05T       0.035950
     14 HAAA        -0.3600     0.8840     0.5120 hc         1 05T       0.035950
     15 HAB          1.8890    -0.8880    -0.5070 h1         1 05T       0.073700
     16 HNAC         1.4330     2.0030    -0.7680 hn         1 05T       0.302800
     17 HNAE         3.6290     3.1100    -1.3180 hn         1 05T       0.232800
     18 HNAA         4.6890     2.1920    -2.1570 hn         1 05T       0.232800
     19 HNAF         4.9210     0.1250    -1.6260 hn         1 05T       0.360400
     20 HAG          3.1230    -0.0030     1.4420 hc         1 05T       0.035950
     21 HAGA         1.6760     0.8840     1.9520 hc         1 05T       0.035950
     22 HAH          1.8890    -2.1330     1.6530 hc         1 05T       0.031950
     23 HAHA         1.8880    -1.2450     3.1870 hc         1 05T       0.031950
     24 HAI         -0.3600    -0.3600     2.6710 hc         1 05T       0.049700
     25 HAJ         -0.1470    -2.1320     0.2120 hc         1 05T       0.031950
     26 HAJA        -1.5940    -1.2450     0.7220 hc         1 05T       0.031950
     27 HAK         -0.0800    -2.5430     3.8780 hx         1 05T       0.091200
     28 HAKA        -0.2260    -3.3800     2.3260 hx         1 05T       0.091200
     29 HNAL        -2.2580    -1.4950     3.1780 hn         1 05T       0.228800
     30 H2          -2.3850    -2.7430     2.1300 hn         1 05T       0.228800
     31 HAE3         3.2080     2.4460    -2.7650 hn         1 05T       0.232800
     32 HAL3        -2.2810    -3.0230     3.7430 hn         1 05T       0.228800
@<TRIPOS>BOND
     1     1     2 1   
     2     1    10 1   
     3     1    13 1   
     4     1    14 1   
     5     2     3 1   
     6     2     7 1   
     7     2    15 1   
     8     3     4 1   
     9     3    16 1   
    10     4     5 1   
    11     4     6 2   
    12     5    17 1   
    13     5    18 1   
    14     5    31 1   
    15     6    19 1   
    16     7     8 1   
    17     7    20 1   
    18     7    21 1   
    19     8     9 1   
    20     8    22 1   
    21     8    23 1   
    22     9    10 1   
    23     9    11 1   
    24     9    24 1   
    25    10    25 1   
    26    10    26 1   
    27    11    12 1   
    28    11    27 1   
    29    11    28 1   
    30    12    29 1   
    31    12    30 1   
    32    12    32 1   
@<TRIPOS>SUBSTRUCTURE
     1 05T         1 TEMP              0 ****  ****    0 ROOT
