@<TRIPOS>MOLECULE
05T
   33    33     1     0     0
SMALL
bcc


@<TRIPOS>ATOM
      1 CAA         -0.5710    -0.0150     0.2370 c3         1 05T      -0.103900
      2 CAB          0.8780    -0.0670    -0.2460 c3         1 05T       0.155500
      3 NAC          1.1750     0.8280    -1.4620 ny         1 05T      -0.746000
      4 CAD          1.1460     2.3210    -1.2980 c2         1 05T       0.622100
      5 NAE          1.7060     3.0710    -2.5000 nz         1 05T      -0.876600
      6 NAF          0.6760     2.8480    -0.2420 n2         1 05T      -0.600100
      7 CAG          1.8280     0.1300     0.9320 c3         1 05T      -0.103900
      8 CAH          1.6140    -1.0120     1.9160 c3         1 05T      -0.086900
      9 CAI          0.1680    -1.0820     2.4020 c3         1 05T      -0.096700
     10 CAJ         -0.7890    -1.1590     1.2200 c3         1 05T      -0.086900
     11 CAK          0.0420    -2.3140     3.3110 c3         1 05T       0.099800
     12 NAL         -1.1470    -2.3070     4.2070 nz         1 05T      -0.837600
     13 HAA         -1.2890    -0.1360    -0.6180 hc         1 05T       0.091700
     14 HAAA        -0.7960     0.9560     0.7500 hc         1 05T       0.091700
     15 HAB          1.0690    -1.0990    -0.7000 hx         1 05T       0.131700
     16 HNAC         0.4710     0.5820    -2.1800 hn         1 05T       0.487300
     17 HNAE         1.2070     2.8250    -3.3690 hn         1 05T       0.504800
     18 HNAA         2.7150     2.8810    -2.6220 hn         1 05T       0.504800
     19 HNAF         0.6120     3.8360    -0.0610 hn         1 05T       0.544400
     20 HAG          2.9010     0.1140     0.5980 hc         1 05T       0.091700
     21 HAGA         1.6340     1.1030     1.4540 hc         1 05T       0.091700
     22 HAH          1.9030    -1.9870     1.4400 hc         1 05T       0.089700
     23 HAHA         2.3040    -0.8470     2.7890 hc         1 05T       0.089700
     24 HAI         -0.0520    -0.1460     2.9920 hc         1 05T       0.085700
     25 HAJ         -1.8530    -1.1010     1.5750 hc         1 05T       0.089700
     26 HAJA        -0.6650    -2.1420     0.6900 hc         1 05T       0.089700
     27 HAK          0.9570    -2.3830     3.9740 hx         1 05T       0.129200
     28 HAKA        -0.0100    -3.2520     2.6810 hx         1 05T       0.129200
     29 HNAL        -1.1510    -3.1680     4.7770 hn         1 05T       0.475800
     30 H2          -1.1220    -1.4990     4.8410 hn         1 05T       0.475800
     31 HAE3         1.5970     4.0930    -2.3590 hn         1 05T       0.504800
     32 HAL3        -2.0170    -2.2720     3.6640 hn         1 05T       0.475800
     33 HAC2         2.1160     0.5540    -1.7870 hn         1 05T       0.487300
@<TRIPOS>BOND
     1     1     2 1   
     2     1    10 1   
     3     1    13 1   
     4     1    14 1   
     5     2     3 1   
     6     2     7 1   
     7     2    15 1   
     8     3     4 1   
     9     3    16 1   
    10     3    33 1   
    11     4     5 1   
    12     4     6 2   
    13     5    17 1   
    14     5    18 1   
    15     5    31 1   
    16     6    19 1   
    17     7     8 1   
    18     7    20 1   
    19     7    21 1   
    20     8     9 1   
    21     8    22 1   
    22     8    23 1   
    23     9    10 1   
    24     9    11 1   
    25     9    24 1   
    26    10    25 1   
    27    10    26 1   
    28    11    12 1   
    29    11    27 1   
    30    11    28 1   
    31    12    29 1   
    32    12    30 1   
    33    12    32 1   
@<TRIPOS>SUBSTRUCTURE
     1 05T         1 TEMP              0 ****  ****    0 ROOT
