@<TRIPOS>MOLECULE
05U
   33    32     1     0     0
SMALL
bcc


@<TRIPOS>ATOM
      1 N3          -0.1170     0.1700     0.1710 nz         1 05U      -0.839600
      2 C11          1.3850     0.1150     0.0880 c3         1 05U       0.131500
      3 C12          1.9200     1.2320    -0.8140 c3         1 05U      -0.111400
      4 C13          1.9700     0.8510    -2.2880 c3         1 05U      -0.079700
      5 C15          0.5990     0.6490    -2.8970 c3         1 05U      -0.105600
      6 C14          2.7200     1.9310    -3.0470 c3         1 05U      -0.105600
      7 C16          2.0300     0.1750     1.5010 c3         1 05U       0.126100
      8 O6           1.2350     1.0600     2.2800 oh         1 05U      -0.638800
      9 C17          2.1720    -1.1910     2.1840 c3         1 05U      -0.111700
     10 C23          3.2130    -2.0430     1.4920 c3         1 05U      -0.106100
     11 C18          0.8650    -1.9370     2.3210 c3         1 05U      -0.106100
     12 H33         -0.5190     0.2070    -0.7710 hn         1 05U       0.464133
     13 H34          1.6470    -0.8890    -0.3670 hx         1 05U       0.114700
     14 H35          2.9710     1.4650    -0.4870 hc         1 05U       0.085200
     15 H36          1.3320     2.1780    -0.6780 hc         1 05U       0.085200
     16 H37          2.5480    -0.1120    -2.3880 hc         1 05U       0.063700
     17 H38         -0.0990     1.4720    -2.6060 hc         1 05U       0.048200
     18 H39          0.6760     0.6500    -4.0140 hc         1 05U       0.048200
     19 H40          0.1650    -0.3370    -2.6000 hc         1 05U       0.048200
     20 H41          3.7420     2.0740    -2.6210 hc         1 05U       0.048200
     21 H42          2.8240     1.6410    -4.1210 hc         1 05U       0.048200
     22 H43          2.1710     2.9020    -2.9940 hc         1 05U       0.048200
     23 H44          3.0650     0.6110     1.3810 h1         1 05U       0.083700
     24 H45          1.6670     1.1650     3.1390 ho         1 05U       0.453000
     25 H46          2.5480    -0.9720     3.2290 hc         1 05U       0.080700
     26 H47          2.8740    -2.3620     0.4760 hc         1 05U       0.049700
     27 H48          4.1760    -1.4870     1.3880 hc         1 05U       0.049700
     28 H49          3.4040    -2.9650     2.0950 hc         1 05U       0.049700
     29 H50          0.9930    -2.7910     3.0330 hc         1 05U       0.049700
     30 H51          0.0700    -1.2660     2.7280 hc         1 05U       0.049700
     31 H52          0.5380    -2.3680     1.3430 hc         1 05U       0.049700
     32 H2          -0.4660    -0.6500     0.6760 hn         1 05U       0.464133
     33 H331        -0.3880     1.0140     0.6930 hn         1 05U       0.464133
@<TRIPOS>BOND
     1     1     2 1   
     2     1    12 1   
     3     1    32 1   
     4     1    33 1   
     5     2     3 1   
     6     2     7 1   
     7     2    13 1   
     8     3     4 1   
     9     3    14 1   
    10     3    15 1   
    11     4     5 1   
    12     4     6 1   
    13     4    16 1   
    14     5    17 1   
    15     5    18 1   
    16     5    19 1   
    17     6    20 1   
    18     6    21 1   
    19     6    22 1   
    20     7     8 1   
    21     7     9 1   
    22     7    23 1   
    23     8    24 1   
    24     9    10 1   
    25     9    11 1   
    26     9    25 1   
    27    10    26 1   
    28    10    27 1   
    29    10    28 1   
    30    11    29 1   
    31    11    30 1   
    32    11    31 1   
@<TRIPOS>SUBSTRUCTURE
     1 05U         1 TEMP              0 ****  ****    0 ROOT
