@<TRIPOS>MOLECULE
molecule
   33    32     1     0     0
SMALL
bcc


@<TRIPOS>ATOM
      1 N3           0.0000     0.0000     0.0000 nz         1 05U      -0.805600
      2 C11          1.4690     0.0000     0.0000 c3         1 05U       0.096500
      3 C12          1.9790     1.2490    -0.7210 c3         1 05U      -0.107400
      4 C13          1.5390     1.2080    -2.1860 c3         1 05U      -0.090700
      5 C15          1.9220     2.5210    -2.8700 c3         1 05U      -0.092600
      6 C14          2.2330     0.0420    -2.8930 c3         1 05U      -0.092600
      7 C16          1.9790     0.0000     1.4420 c3         1 05U       0.123100
      8 O6           1.5020     1.1670     2.1170 oh         1 05U      -0.618800
      9 C17          1.4680    -1.2500     2.1640 c3         1 05U      -0.105700
     10 C23          1.9780    -2.4980     1.4430 c3         1 05U      -0.092600
     11 C18          1.9780    -1.2490     3.6070 c3         1 05U      -0.092600
     12 H33         -0.3340    -0.8310     0.4480 hn         1 05U       0.458133
     13 H34          1.8300    -0.8850    -0.5110 hx         1 05U       0.121700
     14 H35          3.0610     1.2790    -0.6700 hc         1 05U       0.087700
     15 H36          1.5710     2.1330    -0.2460 hc         1 05U       0.087700
     16 H37          0.4650     1.0740    -2.2370 hc         1 05U       0.019700
     17 H38          1.4550     3.3490    -2.3500 hc         1 05U       0.050867
     18 H39          1.5830     2.5050    -3.8990 hc         1 05U       0.050867
     19 H40          2.9980     2.6410    -2.8470 hc         1 05U       0.050867
     20 H41          2.3150     0.2590    -3.9520 hc         1 05U       0.050867
     21 H42          3.2220    -0.0970    -2.4750 hc         1 05U       0.050867
     22 H43          1.6520    -0.8620    -2.7550 hc         1 05U       0.050867
     23 H44          3.0620     0.0000     1.4420 h1         1 05U       0.089700
     24 H45          2.2260     1.6140     2.5220 ho         1 05U       0.444000
     25 H46          0.3850    -1.2500     2.1640 hc         1 05U       0.036700
     26 H47          1.3030    -2.7490     0.6340 hc         1 05U       0.052033
     27 H48          2.9660    -2.3060     1.0430 hc         1 05U       0.052033
     28 H49          2.0270    -3.3240     2.1420 hc         1 05U       0.052033
     29 H50          3.0450    -1.0610     3.6130 hc         1 05U       0.052033
     30 H51          1.4720    -0.4730     4.1680 hc         1 05U       0.052033
     31 H52          1.7790    -2.2120     4.0610 hc         1 05U       0.052033
     32 H2          -0.3340     0.8030     0.4960 hn         1 05U       0.458133
     33 H331        -0.3340     0.0280    -0.9430 hn         1 05U       0.458133
@<TRIPOS>BOND
     1     9     7 1   
     2     9    10 1   
     3     9    11 1   
     4     7     8 1   
     5     7     2 1   
     6     3     4 1   
     7     3     2 1   
     8     4     6 1   
     9     4     5 1   
    10     2     1 1   
    11     1    12 1   
    12     2    13 1   
    13     3    14 1   
    14     3    15 1   
    15     4    16 1   
    16     5    17 1   
    17     5    18 1   
    18     5    19 1   
    19     6    20 1   
    20     6    21 1   
    21     6    22 1   
    22     7    23 1   
    23     8    24 1   
    24     9    25 1   
    25    10    26 1   
    26    10    27 1   
    27    10    28 1   
    28    11    29 1   
    29    11    30 1   
    30    11    31 1   
    31     1    32 1   
    32    33     1 1   
@<TRIPOS>SUBSTRUCTURE
     1 05U         1 TEMP              0 ****  ****    0 ROOT
