@<TRIPOS>MOLECULE
05W
   34    33     1     0     0
SMALL
bcc


@<TRIPOS>ATOM
      1 N4           0.0900    -0.0180     0.1600 nz         1 05W      -0.843600
      2 C16          1.5810     0.0790     0.0170 c3         1 05W       0.134500
      3 C25          1.9850     1.3190    -0.7890 c3         1 05W      -0.107400
      4 C26          2.0120     1.0800    -2.2920 c3         1 05W      -0.079700
      5 C28          0.6390     0.8280    -2.8760 c3         1 05W      -0.104600
      6 C27          2.6490     2.2810    -2.9680 c3         1 05W      -0.104600
      7 C17          2.2710     0.0970     1.4070 c3         1 05W       0.127100
      8 C22          2.1770    -1.1980     2.2240 c3         1 05W      -0.151700
      9 C23          2.6190    -2.4010     1.4240 c3         1 05W      -0.104100
     10 C24          0.8190    -1.4220     2.8890 c3         1 05W       0.115400
     11 O7          -0.1120    -2.0680     2.0390 oh         1 05W      -0.648800
     12 O4           1.6890     1.1870     2.1100 oh         1 05W      -0.623800
     13 H12         -0.3670     0.3170    -0.6930 hn         1 05W       0.467800
     14 H13          1.9230    -0.8510    -0.5310 hx         1 05W       0.111700
     15 H14          1.3210     2.1890    -0.5430 hc         1 05W       0.084700
     16 H15          3.0210     1.6150    -0.4630 hc         1 05W       0.084700
     17 H16          2.6580     0.1790    -2.5000 hc         1 05W       0.060700
     18 H17          0.2730    -0.1970    -2.6230 hc         1 05W       0.047867
     19 H18         -0.0980     1.5880    -2.5190 hc         1 05W       0.047867
     20 H19          0.6830     0.8970    -3.9920 hc         1 05W       0.047867
     21 H20          2.7300     2.1030    -4.0680 hc         1 05W       0.047867
     22 H21          3.6750     2.4610    -2.5640 hc         1 05W       0.047867
     23 H22          2.0340     3.1980    -2.8020 hc         1 05W       0.047867
     24 H23          3.3650     0.3000     1.2140 h1         1 05W       0.083700
     25 H24          2.9130    -1.0600     3.0740 hc         1 05W       0.086700
     26 H25          2.7380    -3.2830     2.1010 hc         1 05W       0.052700
     27 H26          1.8670    -2.6660     0.6410 hc         1 05W       0.052700
     28 H27          3.6010    -2.2070     0.9280 hc         1 05W       0.052700
     29 H28          0.3390    -0.4370     3.1470 h1         1 05W       0.073700
     30 H29          0.9600    -2.0180     3.8300 h1         1 05W       0.073700
     31 H30          0.0630    -3.0170     2.0690 ho         1 05W       0.436000
     32 H31          2.2140     1.3360     2.9070 ho         1 05W       0.446000
     33 H2          -0.1810    -0.9940     0.3460 hn         1 05W       0.467800
     34 H43         -0.2090     0.5590     0.9570 hn         1 05W       0.467800
@<TRIPOS>BOND
     1     1     2 1   
     2     1    13 1   
     3     1    33 1   
     4     1    34 1   
     5     2     3 1   
     6     2     7 1   
     7     2    14 1   
     8     3     4 1   
     9     3    15 1   
    10     3    16 1   
    11     4     5 1   
    12     4     6 1   
    13     4    17 1   
    14     5    18 1   
    15     5    19 1   
    16     5    20 1   
    17     6    21 1   
    18     6    22 1   
    19     6    23 1   
    20     7     8 1   
    21     7    12 1   
    22     7    24 1   
    23     8     9 1   
    24     8    10 1   
    25     8    25 1   
    26     9    26 1   
    27     9    27 1   
    28     9    28 1   
    29    10    11 1   
    30    10    29 1   
    31    10    30 1   
    32    11    31 1   
    33    12    32 1   
@<TRIPOS>SUBSTRUCTURE
     1 05W         1 TEMP              0 ****  ****    0 ROOT
