@<TRIPOS>MOLECULE
05W
   34    33     1     0     0
SMALL
bcc


@<TRIPOS>ATOM
      1 N4           0.0000     0.0000     0.0000 nz         1 05W       0.053400
      2 C16          1.4680     0.0000     0.0000 c3         1 05W      -0.102500
      3 C25          1.9780     1.2500    -0.7210 c3         1 05W      -0.041400
      4 C26          1.5730     1.1890    -2.1950 c3         1 05W      -0.066700
      5 C28          1.9720     2.4940    -2.8880 c3         1 05W       0.006400
      6 C27          2.2820     0.0140    -2.8710 c3         1 05W       0.006400
      7 C17          1.9790     0.0000     1.4420 c3         1 05W       0.179100
      8 C22          1.4320    -1.2260     2.1760 c3         1 05W      -0.096700
      9 C23          1.8380    -1.1620     3.6500 c3         1 05W       0.015900
     10 C24          2.0050    -2.4970     1.5440 c3         1 05W       0.228400
     11 O7           1.4060    -3.6430     2.1530 oh         1 05W      -0.578800
     12 O4           1.5380     1.1870     2.1040 oh         1 05W      -0.596800
     13 H12         -0.3340     0.7010     0.6320 hn         1 05W       0.235133
     14 H13          1.8290    -0.8840    -0.5110 hx         1 05W       0.106700
     15 H14          1.5470     2.1320    -0.2640 hc         1 05W       0.057200
     16 H15          3.0580     1.2950    -0.6460 hc         1 05W       0.057200
     17 H16          0.5000     1.0550    -2.2690 hc         1 05W       0.001700
     18 H17          1.4960     3.3290    -2.3880 hc         1 05W       0.017200
     19 H18          3.0480     2.6120    -2.8430 hc         1 05W       0.017200
     20 H19          1.6550     2.4640    -3.9230 hc         1 05W       0.017200
     21 H20          2.3990     0.2230    -3.9270 hc         1 05W       0.017200
     22 H21          1.6920    -0.8850    -2.7440 hc         1 05W       0.017200
     23 H22          3.2570    -0.1260    -2.4200 hc         1 05W       0.017200
     24 H23          3.0620    -0.0320     1.4420 h1         1 05W       0.050700
     25 H24          0.3510    -1.2400     2.1000 hc         1 05W       0.018700
     26 H25          1.2900    -0.3670     4.1410 hc         1 05W       0.024033
     27 H26          2.9010    -0.9660     3.7230 hc         1 05W       0.024033
     28 H27          1.6110    -2.1070     4.1290 hc         1 05W       0.024033
     29 H28          1.7920    -2.5000     0.4820 h1         1 05W      -0.015300
     30 H29          3.0770    -2.5260     1.6980 h1         1 05W      -0.015300
     31 H30          1.8280    -4.4240     1.8360 ho         1 05W       0.413000
     32 H31          2.2800     1.6310     2.4800 ho         1 05W       0.437000
     33 H2          -0.3340     0.1970    -0.9230 hn         1 05W       0.235133
     34 H43         -0.3340    -0.8980     0.2910 hn         1 05W       0.235133
@<TRIPOS>BOND
     1     1     2 1   
     2     1    13 1   
     3     1    33 1   
     4     1    34 1   
     5     2     3 1   
     6     2     7 1   
     7     2    14 1   
     8     3     4 1   
     9     3    15 1   
    10     3    16 1   
    11     4     5 1   
    12     4     6 1   
    13     4    17 1   
    14     5    18 1   
    15     5    19 1   
    16     5    20 1   
    17     6    21 1   
    18     6    22 1   
    19     6    23 1   
    20     7     8 1   
    21     7    12 1   
    22     7    24 1   
    23     8     9 1   
    24     8    10 1   
    25     8    25 1   
    26     9    26 1   
    27     9    27 1   
    28     9    28 1   
    29    10    11 1   
    30    10    29 1   
    31    10    30 1   
    32    11    31 1   
    33    12    32 1   
@<TRIPOS>SUBSTRUCTURE
     1 05W         1 TEMP              0 ****  ****    0 ROOT
