@<TRIPOS>MOLECULE
molecule
   34    33     1     0     0
SMALL
bcc


@<TRIPOS>ATOM
      1 N4           0.0000     0.0000     0.0000 nz         1 05W      -0.807600
      2 C16          1.4680     0.0000     0.0000 c3         1 05W       0.092500
      3 C25          1.9780     1.2500    -0.7210 c3         1 05W      -0.106400
      4 C26          1.5730     1.1890    -2.1950 c3         1 05W      -0.090700
      5 C28          1.9720     2.4940    -2.8880 c3         1 05W      -0.092100
      6 C27          2.2820     0.0140    -2.8710 c3         1 05W      -0.092100
      7 C17          1.9790     0.0000     1.4420 c3         1 05W       0.124100
      8 C22          1.4320    -1.2260     2.1760 c3         1 05W      -0.101700
      9 C23          1.8380    -1.1620     3.6500 c3         1 05W      -0.082100
     10 C24          2.0050    -2.4970     1.5440 c3         1 05W       0.140400
     11 O7           1.4060    -3.6430     2.1530 oh         1 05W      -0.596800
     12 O4           1.5380     1.1870     2.1040 oh         1 05W      -0.612800
     13 H12         -0.3340     0.7010     0.6320 hn         1 05W       0.459800
     14 H13          1.8290    -0.8840    -0.5110 hx         1 05W       0.119700
     15 H14          1.5470     2.1320    -0.2640 hc         1 05W       0.088200
     16 H15          3.0580     1.2950    -0.6460 hc         1 05W       0.088200
     17 H16          0.5000     1.0550    -2.2690 hc         1 05W       0.020700
     18 H17          1.4960     3.3290    -2.3880 hc         1 05W       0.051200
     19 H18          3.0480     2.6120    -2.8430 hc         1 05W       0.051200
     20 H19          1.6550     2.4640    -3.9230 hc         1 05W       0.051200
     21 H20          2.3990     0.2230    -3.9270 hc         1 05W       0.051200
     22 H21          1.6920    -0.8850    -2.7440 hc         1 05W       0.051200
     23 H22          3.2570    -0.1260    -2.4200 hc         1 05W       0.051200
     24 H23          3.0620    -0.0320     1.4420 h1         1 05W       0.087700
     25 H24          0.3510    -1.2400     2.1000 hc         1 05W       0.045700
     26 H25          1.2900    -0.3670     4.1410 hc         1 05W       0.059367
     27 H26          2.9010    -0.9660     3.7230 hc         1 05W       0.059367
     28 H27          1.6110    -2.1070     4.1290 hc         1 05W       0.059367
     29 H28          1.7920    -2.5000     0.4820 h1         1 05W       0.020700
     30 H29          3.0770    -2.5260     1.6980 h1         1 05W       0.020700
     31 H30          1.8280    -4.4240     1.8360 ho         1 05W       0.426000
     32 H31          2.2800     1.6310     2.4800 ho         1 05W       0.445000
     33 H2          -0.3340     0.1970    -0.9230 hn         1 05W       0.459800
     34 H43         -0.3340    -0.8980     0.2910 hn         1 05W       0.459800
@<TRIPOS>BOND
     1     8     7 1   
     2     8    10 1   
     3     8     9 1   
     4     7    12 1   
     5     7     2 1   
     6    10    11 1   
     7     3     4 1   
     8     3     2 1   
     9     6     4 1   
    10     4     5 1   
    11     2     1 1   
    12     1    13 1   
    13     2    14 1   
    14     3    15 1   
    15     3    16 1   
    16     4    17 1   
    17     5    18 1   
    18     5    19 1   
    19     5    20 1   
    20     6    21 1   
    21     6    22 1   
    22     6    23 1   
    23     7    24 1   
    24     8    25 1   
    25     9    26 1   
    26     9    27 1   
    27     9    28 1   
    28    10    29 1   
    29    10    30 1   
    30    11    31 1   
    31    12    32 1   
    32     1    33 1   
    33    34     1 1   
@<TRIPOS>SUBSTRUCTURE
     1 05W         1 TEMP              0 ****  ****    0 ROOT
