@<TRIPOS>MOLECULE
062
   61    65     1     0     0
SMALL
bcc


@<TRIPOS>ATOM
      1 N1           0.0000     0.0000     0.0000 na         1 062       0.818600
      2 C2           1.3180     0.0000     0.0000 ca         1 062      -0.352300
      3 C3           2.0240     0.0000     1.2020 cp         1 062       0.056000
      4 C4           1.3060     0.0040     2.3980 ca         1 062      -0.193300
      5 C5          -0.0720    -0.0000     2.3510 ca         1 062       0.004000
      6 C6          -0.7020    -0.0010     1.1180 ca         1 062      -0.379300
      7 C10          3.4770     0.0020     1.4990 cp         1 062      -0.038000
      8 C11          3.6670     0.0030     2.8790 ca         1 062      -0.102300
      9 C12          2.3040     0.0030     3.5270 c3         1 062       0.246400
     10 C13          4.5900     0.0010     0.6560 ca         1 062      -0.056000
     11 C14          5.8610     0.0010     1.1910 ca         1 062      -0.101000
     12 C15          6.0400     0.0030     2.5630 ca         1 062      -0.101000
     13 C16          4.9410     0.0040     3.4050 ca         1 062      -0.048000
     14 O21          2.1400     1.1760     4.3280 oh         1 062      -0.587800
     15 C22          2.1300    -1.2310     4.3730 c          1 062       0.629100
     16 N23          1.2250    -1.2420     5.3720 n          1 062      -0.136800
     17 C24          0.8680    -2.4100     6.1980 c3         1 062      -0.031300
     18 C25         -0.5590    -2.1090     6.7180 c3         1 062      -0.030400
     19 C26         -0.4860    -0.5790     6.9630 c3         1 062      -0.026400
     20 C27          0.4260    -0.0890     5.8180 c3         1 062       0.037000
     21 C34          0.8680    -3.6640     5.3610 c          1 062       0.575100
     22 N36          1.0800    -4.8610     5.9410 ns         1 062      -0.224900
     23 C37          1.0800    -6.0800     5.1280 c3         1 062       0.117300
     24 C38          1.3380    -7.2730     6.0110 ca         1 062      -0.089300
     25 C41          2.6030    -7.8270     6.0720 ca         1 062      -0.063000
     26 C42          2.8410    -8.9220     6.8830 ca         1 062      -0.013600
     27 C43          1.8120    -9.4610     7.6350 ca         1 062      -0.076000
     28 C44          0.5490    -8.9040     7.5760 ca         1 062      -0.050000
     29 C45          0.3120    -7.8080     6.7670 ca         1 062      -0.205300
     30 Cl1          4.4270    -9.6220     6.9550 cl         1 062       0.065600
     31 C53         -1.0650    -7.2000     6.7040 c3         1 062       0.031100
     32 N54         -1.7530    -7.6720     5.4940 nz         1 062       0.065400
     33 O60         -0.6860    -0.0010    -1.2400 o          1 062      -0.532000
     34 O63          2.8050    -2.2140     4.1560 o          1 062      -0.625100
     35 O64          0.6770    -3.5940     4.1650 o          1 062      -0.604100
     36 H2           1.8560     0.0010    -0.9400 h4         1 062       0.171000
     37 H5          -0.6540    -0.0010     3.2660 ha         1 062       0.120000
     38 H6          -1.7840    -0.0010     1.0700 h4         1 062       0.166000
     39 H13          4.6170     0.0030    -0.4270 ha         1 062       0.114000
     40 H14          6.7340     0.0010     0.5510 ha         1 062       0.112000
     41 H15          7.0550     0.0120     2.9420 ha         1 062       0.111000
     42 H16          5.3200     0.0390     4.4200 ha         1 062       0.115000
     43 H21          2.5210     1.9160     3.8850 ho         1 062       0.416000
     44 H24          1.5570    -2.5050     7.0280 h1         1 062       0.040700
     45 H251        -0.7520    -2.6390     7.6430 hc         1 062       0.022200
     46 H252        -1.3020    -2.3440     5.9650 hc         1 062       0.022200
     47 H261        -0.0370    -0.3670     7.9260 hc         1 062       0.031700
     48 H262        -1.4700    -0.1320     6.8840 hc         1 062       0.031700
     49 H271        -0.1790     0.2780     4.9980 h1         1 062       0.039200
     50 H272         1.0810     0.6940     6.1800 h1         1 062       0.039200
     51 H36          1.2740    -4.9140     6.9210 hn         1 062       0.186500
     52 H371         0.1170    -6.1910     4.6430 h1         1 062       0.018700
     53 H372         1.8570    -6.0120     4.3760 h1         1 062       0.018700
     54 H41          3.4080    -7.4040     5.4830 ha         1 062       0.143000
     55 H43          1.9970   -10.3190     8.2690 ha         1 062       0.137000
     56 H44         -0.2560    -9.3240     8.1670 ha         1 062       0.115000
     57 H531        -1.6310    -7.4960     7.5790 hx         1 062       0.084200
     58 H532        -0.9830    -6.1210     6.6750 hx         1 062       0.084200
     59 H541        -2.5150    -8.2670     5.7540 hn         1 062       0.228133
     60 H542        -1.1100    -8.1830     4.9230 hn         1 062       0.228133
     61 H543        -2.1030    -6.8870     4.9820 hn         1 062       0.228133
@<TRIPOS>BOND
     1     1     2 1   
     2     1     6 2   
     3     1    33 1   
     4     2     3 ar  
     5     2    36 1   
     6     3     4 ar  
     7     3     7 1   
     8     4     5 ar  
     9     4     9 1   
    10     5     6 ar  
    11     5    37 1   
    12     6    38 1   
    13     7     8 ar  
    14     7    10 ar  
    15     8     9 1   
    16     8    13 ar  
    17     9    14 1   
    18     9    15 1   
    19    10    11 ar  
    20    10    39 1   
    21    11    12 ar  
    22    11    40 1   
    23    12    13 ar  
    24    12    41 1   
    25    13    42 1   
    26    14    43 1   
    27    15    16 1   
    28    15    34 2   
    29    16    17 1   
    30    16    20 1   
    31    17    18 1   
    32    17    21 1   
    33    17    44 1   
    34    18    19 1   
    35    18    45 1   
    36    18    46 1   
    37    19    20 1   
    38    19    47 1   
    39    19    48 1   
    40    20    49 1   
    41    20    50 1   
    42    21    22 1   
    43    21    35 2   
    44    22    23 1   
    45    22    51 1   
    46    23    24 1   
    47    23    52 1   
    48    23    53 1   
    49    24    25 ar  
    50    24    29 ar  
    51    25    26 ar  
    52    25    54 1   
    53    26    27 ar  
    54    26    30 1   
    55    27    28 ar  
    56    27    55 1   
    57    28    29 ar  
    58    28    56 1   
    59    29    31 1   
    60    31    32 1   
    61    31    57 1   
    62    31    58 1   
    63    32    59 1   
    64    32    60 1   
    65    32    61 1   
@<TRIPOS>SUBSTRUCTURE
     1 062         1 TEMP              0 ****  ****    0 ROOT
