@<TRIPOS>MOLECULE
062
   62    66     1     0     0
SMALL
bcc


@<TRIPOS>ATOM
      1 N1           0.5130     0.4780     0.1910 na         1 062       0.277600
      2 C2           1.8810     0.3030     0.4840 ca         1 062      -0.196300
      3 C3           2.2810    -0.0400     1.7580 cp         1 062       0.025000
      4 C4           1.3250    -0.2280     2.8040 ca         1 062      -0.259300
      5 C5          -0.0170    -0.0460     2.5280 ca         1 062      -0.029000
      6 C6          -0.4040     0.3000     1.2290 ca         1 062      -0.243300
      7 C10          3.6220    -0.2560     2.2990 cp         1 062      -0.043000
      8 C11          3.5050    -0.5910     3.6830 ca         1 062      -0.169300
      9 C12          2.0410    -0.5640     4.0970 c3         1 062       0.245400
     10 C13          4.8660    -0.1640     1.6980 ca         1 062      -0.076000
     11 C14          6.0070    -0.4060     2.4810 ca         1 062      -0.089000
     12 C15          5.8940    -0.7270     3.8300 ca         1 062      -0.112000
     13 C16          4.6340    -0.8190     4.4450 ca         1 062      -0.098000
     14 O21          1.8150     0.4190     5.1090 oh         1 062      -0.648800
     15 C22          1.5130    -1.8650     4.7130 c          1 062       0.712100
     16 N23          1.7890    -3.0940     4.1750 n          1 062      -0.433800
     17 C24          1.0930    -4.2940     4.6130 c3         1 062       0.052700
     18 C25          1.3910    -5.4130     3.5830 c3         1 062      -0.086400
     19 C26          2.2730    -4.7840     2.5100 c3         1 062      -0.095400
     20 C27          2.5420    -3.3390     2.9460 c3         1 062       0.078000
     21 C34          1.5620    -4.7460     6.0090 c          1 062       0.527100
     22 N36          0.7610    -4.1940     7.1740 ny         1 062      -0.681800
     23 C37          1.6410    -3.4950     8.1680 c3         1 062       0.169100
     24 C38          0.8440    -2.8460     9.2570 ca         1 062      -0.106300
     25 C41          0.1140    -3.6950    10.0990 ca         1 062      -0.131000
     26 C42         -0.6530    -3.1780    11.1500 ca         1 062       0.057400
     27 C43         -0.6810    -1.7940    11.3710 ca         1 062      -0.079000
     28 C44          0.0660    -0.9550    10.5510 ca         1 062      -0.098000
     29 C45          0.8350    -1.4620     9.4910 ca         1 062      -0.139300
     30 Cl1         -1.5260    -4.2160    12.1430 cl         1 062       0.018600
     31 C53          1.6780    -0.4760     8.7460 c3         1 062       0.167100
     32 N54          0.8980     0.3300     7.7610 nz         1 062      -0.846600
     33 O60          0.1540     0.7700    -0.9270 o          1 062      -0.180000
     34 O63          0.8200    -1.8180     5.7690 o          1 062      -0.748100
     35 O64          2.4800    -5.4940     6.2890 o          1 062      -0.377100
     36 H2           2.5720     0.4680    -0.3630 h4         1 062       0.212000
     37 H5          -0.7970    -0.1590     3.2960 ha         1 062       0.155000
     38 H6          -1.4620     0.4600     0.9490 h4         1 062       0.210000
     39 H13          4.9660     0.1000     0.6330 ha         1 062       0.168000
     40 H14          7.0050    -0.3310     2.0150 ha         1 062       0.171000
     41 H15          6.8010    -0.9060     4.4290 ha         1 062       0.162000
     42 H16          4.5630    -1.0590     5.5150 ha         1 062       0.126000
     43 H21          2.0150     1.2740     4.6990 ho         1 062       0.456000
     44 H24         -0.0190    -4.0950     4.6580 h1         1 062       0.095700
     45 H251         1.9080    -6.2820     4.0630 hc         1 062       0.095700
     46 H252         0.4260    -5.7770     3.1500 hc         1 062       0.095700
     47 H261         1.7620    -4.8020     1.5150 hc         1 062       0.093200
     48 H262         3.2370    -5.3430     2.4070 hc         1 062       0.093200
     49 H271         2.2190    -2.6050     2.1540 h1         1 062       0.087700
     50 H272         3.6360    -3.1740     3.1590 h1         1 062       0.087700
     51 H36          0.2600    -4.9570     7.6430 hn         1 062       0.469300
     52 H371         2.3430    -4.2660     8.6090 hx         1 062       0.116700
     53 H372         2.2480    -2.7500     7.5810 hx         1 062       0.116700
     54 H41          0.1630    -4.7890     9.9610 ha         1 062       0.160000
     55 H43         -1.2780    -1.3730    12.2020 ha         1 062       0.194000
     56 H44          0.0680     0.1290    10.7620 ha         1 062       0.157000
     57 H531         2.5220    -0.9660     8.1850 hx         1 062       0.112700
     58 H532         2.1380     0.2470     9.4890 hx         1 062       0.112700
     59 H541         0.0590     0.7150     8.2000 hn         1 062       0.471800
     60 H542         1.4810     1.0950     7.4020 hn         1 062       0.471800
     61 H543         0.6230    -0.2480     6.9450 hn         1 062       0.471800
     62 H362         0.0750    -3.5140     6.8110 hn         1 062       0.469300
@<TRIPOS>BOND
     1     1     2 1   
     2     1     6 2   
     3     1    33 1   
     4     2     3 ar  
     5     2    36 1   
     6     3     4 ar  
     7     3     7 1   
     8     4     5 ar  
     9     4     9 1   
    10     5     6 ar  
    11     5    37 1   
    12     6    38 1   
    13     7     8 ar  
    14     7    10 ar  
    15     8     9 1   
    16     8    13 ar  
    17     9    14 1   
    18     9    15 1   
    19    10    11 ar  
    20    10    39 1   
    21    11    12 ar  
    22    11    40 1   
    23    12    13 ar  
    24    12    41 1   
    25    13    42 1   
    26    14    43 1   
    27    15    16 1   
    28    15    34 2   
    29    16    17 1   
    30    16    20 1   
    31    17    18 1   
    32    17    21 1   
    33    17    44 1   
    34    18    19 1   
    35    18    45 1   
    36    18    46 1   
    37    19    20 1   
    38    19    47 1   
    39    19    48 1   
    40    20    49 1   
    41    20    50 1   
    42    21    22 1   
    43    21    35 2   
    44    22    23 1   
    45    22    51 1   
    46    22    62 1   
    47    23    24 1   
    48    23    52 1   
    49    23    53 1   
    50    24    25 ar  
    51    24    29 ar  
    52    25    26 ar  
    53    25    54 1   
    54    26    27 ar  
    55    26    30 1   
    56    27    28 ar  
    57    27    55 1   
    58    28    29 ar  
    59    28    56 1   
    60    29    31 1   
    61    31    32 1   
    62    31    57 1   
    63    31    58 1   
    64    32    59 1   
    65    32    60 1   
    66    32    61 1   
@<TRIPOS>SUBSTRUCTURE
     1 062         1 TEMP              0 ****  ****    0 ROOT
