@<TRIPOS>MOLECULE
molecule
   78    82     1     0     0
SMALL
bcc


@<TRIPOS>ATOM
      1 C2           0.0000     0.0000     0.0000 ca         1 065       0.252100
      2 O39          1.3590     0.0000     0.0000 os         1 065      -0.266900
      3 C40          1.7580     0.0000     1.3200 c3         1 065       0.319200
      4 O41          0.6630    -0.0260     2.1470 os         1 065      -0.299900
      5 C3          -0.4260     0.0350     1.3270 ca         1 065       0.034100
      6 C4          -1.7680     0.0980     1.6730 ca         1 065       0.001000
      7 C5          -2.6520     0.1040     0.6180 ca         1 065      -0.636500
      8 C6          -2.2190     0.0890    -0.6840 ca         1 065       0.067000
      9 C7          -0.8850    -0.0430    -1.0420 ca         1 065      -0.160000
     10 S8          -4.3630     0.3630     0.9460 sy         1 065       1.558200
     11 O9          -5.1120    -0.2860    -0.1050 o          1 065      -0.554300
     12 O10         -4.5890    -0.0120     2.3280 o          1 065      -0.554300
     13 N11         -4.6900     1.9760     0.8710 nx         1 065      -0.567300
     14 C12         -3.9590     2.8260     1.7970 c3         1 065       0.123800
     15 C13         -4.7570     3.9720     2.4130 c3         1 065      -0.085700
     16 C14         -5.9110     3.4160     3.2610 c3         1 065      -0.104600
     17 C15         -3.8340     4.8450     3.2620 c3         1 065      -0.104600
     18 C16         -4.9880     2.5340    -0.4300 c3         1 065       0.096800
     19 C17         -6.4470     2.9990    -0.5380 c3         1 065       0.103100
     20 O18         -6.5790     3.7940    -1.7370 oh         1 065      -0.611800
     21 C19         -7.4620     1.8790    -0.5750 c3         1 065       0.146500
     22 N20         -8.7810     2.4160    -0.4150 ny         1 065      -0.640800
     23 C21         -9.5240     2.2950     0.7030 c          1 065       0.624100
     24 O22         -9.2020     1.7150     1.7330 o          1 065      -0.450000
     25 O23        -10.6970     2.9450     0.5490 os         1 065      -0.388900
     26 C24        -11.7130     2.7000     1.5470 c3         1 065       0.129100
     27 C25        -12.4570     4.0020     1.7530 c3         1 065       0.122400
     28 O26        -13.3330     4.0900     0.6200 os         1 065      -0.387600
     29 C27        -13.7380     2.7780     0.2740 c3         1 065       0.328900
     30 O28        -13.5130     2.5880    -1.1170 os         1 065      -0.392600
     31 C29        -12.5340     1.6050    -1.3730 c3         1 065       0.122400
     32 C30        -12.3530     0.8220    -0.0500 c3         1 065      -0.101400
     33 C31        -12.8280     1.7990     0.9990 c3         1 065      -0.146700
     34 C32         -7.4450     1.0160    -1.8240 c3         1 065      -0.056100
     35 C33         -9.5200    -0.3710    -2.7720 ca         1 065      -0.130500
     36 C34        -10.4690    -1.3780    -2.6690 ca         1 065      -0.114500
     37 C35        -10.3650    -2.3740    -1.7400 ca         1 065      -0.090000
     38 C36         -9.3330    -2.3400    -0.7990 ca         1 065      -0.114500
     39 C37         -8.3770    -1.3130    -0.8800 ca         1 065      -0.130500
     40 C38         -8.4720    -0.3380    -1.8590 ca         1 065      -0.182300
     41 H27        -14.7770     2.6080     0.5290 h2         1 065       0.133700
     42 H31        -13.3550     1.2940     1.7990 hc         1 065       0.102700
     43 H24        -11.3020     2.3200     2.4740 h1         1 065       0.101700
     44 H141        -5.5450     2.6110     3.8860 hc         1 065       0.052367
     45 H142        -6.3120     4.2050     3.8870 hc         1 065       0.052367
     46 H143        -6.6910     3.0420     2.6100 hc         1 065       0.052367
     47 H13         -5.1710     4.5760     1.6150 hc         1 065       0.043700
     48 H151        -3.4690     4.2720     4.1050 hc         1 065       0.052367
     49 H152        -4.3830     5.7070     3.6220 hc         1 065       0.052367
     50 H153        -2.9970     5.1770     2.6600 hc         1 065       0.052367
     51 H121        -3.1120     3.2490     1.2710 hx         1 065       0.069200
     52 H122        -3.5840     2.2050     2.6010 hx         1 065       0.069200
     53 H161        -4.3360     3.3790    -0.6090 hx         1 065       0.093200
     54 H162        -4.8030     1.7800    -1.1870 hx         1 065       0.093200
     55 H17         -6.6670     3.6290     0.3150 h1         1 065       0.076700
     56 H18         -6.4660     4.7060    -1.5240 ho         1 065       0.451000
     57 H19         -7.2640     1.2320     0.2710 hx         1 065       0.110700
     58 H321        -7.6220     1.6470    -2.6870 hc         1 065       0.099200
     59 H322        -6.4670     0.5600    -1.9200 hc         1 065       0.099200
     60 H35        -11.1180    -3.1510    -1.6920 ha         1 065       0.167000
     61 H36         -9.3860    -2.9640     0.0850 ha         1 065       0.162500
     62 H37         -7.5700    -1.2730    -0.1580 ha         1 065       0.136500
     63 H20         -8.7050     3.3970    -0.5930 hn         1 065       0.494300
     64 H251       -13.0300     3.9680     2.6710 h1         1 065       0.082200
     65 H252       -11.7650     4.8350     1.7600 h1         1 065       0.082200
     66 H291       -12.8740     0.9370    -2.1560 h1         1 065       0.066700
     67 H292       -11.6010     2.0760    -1.6570 h1         1 065       0.066700
     68 H301       -11.3100     0.5740     0.1060 hc         1 065       0.052700
     69 H302       -12.9700    -0.0680    -0.0470 hc         1 065       0.052700
     70 H6          -2.9630     0.0970    -1.4710 ha         1 065       0.177000
     71 H7          -0.5610    -0.0490    -2.0760 ha         1 065       0.210000
     72 H401         2.3510    -0.8880     1.5020 h2         1 065       0.126200
     73 H402         2.3170     0.9080     1.5130 h2         1 065       0.126200
     74 H4          -2.0930    -0.2410     2.6490 ha         1 065       0.197000
     75 H33         -9.6250     0.4090    -3.5170 ha         1 065       0.136500
     76 H202        -9.3340     2.0160    -1.1470 hn         1 065       0.494300
     77 H111        -5.6040     1.9940     1.2780 hn         1 065       0.390800
     78 H34        -11.2800    -1.4100    -3.3860 ha         1 065       0.162500
@<TRIPOS>BOND
     1     1     9 ar  
     2     1     2 1   
     3     1     5 ar  
     4     2     3 1   
     5     3     4 1   
     6     3    72 1   
     7     3    73 1   
     8     4     5 1   
     9     5     6 ar  
    10     6     7 ar  
    11     6    74 1   
    12     7    10 1   
    13     7     8 ar  
    14     8     9 ar  
    15     8    70 1   
    16     9    71 1   
    17    10    13 1   
    18    10    11 2   
    19    10    12 2   
    20    13    14 1   
    21    13    18 1   
    22    14    15 1   
    23    14    51 1   
    24    14    52 1   
    25    15    16 1   
    26    15    17 1   
    27    15    47 1   
    28    16    44 1   
    29    16    45 1   
    30    16    46 1   
    31    17    48 1   
    32    17    49 1   
    33    17    50 1   
    34    18    19 1   
    35    18    53 1   
    36    18    54 1   
    37    19    20 1   
    38    19    21 1   
    39    19    55 1   
    40    20    56 1   
    41    21    34 1   
    42    21    22 1   
    43    21    57 1   
    44    22    23 1   
    45    22    63 1   
    46    23    24 2   
    47    23    25 1   
    48    25    26 1   
    49    26    27 1   
    50    26    33 1   
    51    26    43 1   
    52    27    28 1   
    53    27    64 1   
    54    27    65 1   
    55    28    29 1   
    56    29    30 1   
    57    29    33 1   
    58    29    41 1   
    59    30    31 1   
    60    31    32 1   
    61    31    66 1   
    62    31    67 1   
    63    32    33 1   
    64    32    68 1   
    65    32    69 1   
    66    33    42 1   
    67    34    40 1   
    68    34    58 1   
    69    34    59 1   
    70    35    40 ar  
    71    35    36 ar  
    72    35    75 1   
    73    36    37 ar  
    74    36    78 1   
    75    37    38 ar  
    76    37    60 1   
    77    38    39 ar  
    78    38    61 1   
    79    39    40 ar  
    80    39    62 1   
    81    76    22 1   
    82    77    13 1   
@<TRIPOS>SUBSTRUCTURE
     1 065         1 TEMP              0 ****  ****    0 ROOT
