@<TRIPOS>MOLECULE
molecule
   76    80     1     0     0
SMALL
bcc


@<TRIPOS>ATOM
      1 C2           0.0000     0.0000     0.0000 ca         1 065       0.103100
      2 O39          1.3650     0.0000     0.0000 os         1 065      -0.322900
      3 C40          1.7500     0.0000     1.3870 c3         1 065       0.330200
      4 O41          0.6420     0.6380     2.0490 os         1 065      -0.321900
      5 C3          -0.4440     0.3860     1.2620 ca         1 065       0.024100
      6 C4          -1.8030     0.4600     1.5220 ca         1 065      -0.025000
      7 C5          -2.7140     0.1510     0.5290 ca         1 065      -0.320500
      8 C6          -2.2730    -0.2330    -0.7230 ca         1 065      -0.023000
      9 C7          -0.9180    -0.3080    -0.9900 ca         1 065      -0.139000
     10 S8          -4.4420     0.2450     0.8620 sy         1 065       1.424200
     11 O9          -5.0780    -0.6160    -0.0730 o          1 065      -0.631300
     12 O10         -4.5870     0.1070     2.2680 o          1 065      -0.631300
     13 N11         -4.9300     1.7820     0.4890 n3         1 065      -0.811500
     14 C12         -5.3960     2.0950    -0.8650 c3         1 065       0.237800
     15 C13         -6.9200     1.9910    -0.9170 c3         1 065      -0.096700
     16 C14         -7.4160     2.4370    -2.2940 c3         1 065      -0.088100
     17 C15         -7.3410     0.5400    -0.6700 c3         1 065      -0.088100
     18 C16         -4.8970     2.8300     1.5130 c3         1 065       0.224800
     19 C17         -3.5870     3.6110     1.4020 c3         1 065       0.105100
     20 O18         -3.5490     4.3030     0.1520 oh         1 065      -0.601800
     21 C19         -3.4960     4.6210     2.5470 c3         1 065       0.124700
     22 N20         -2.1910     5.2840     2.5100 ns         1 065      -0.568900
     23 C21         -1.6710     5.8120     3.6370 c          1 065       0.746100
     24 O22         -2.2850     5.7370     4.6820 o          1 065      -0.595000
     25 O23         -0.4710     6.4220     3.6030 os         1 065      -0.433900
     26 C24          0.0270     6.9660     4.8540 c3         1 065       0.138100
     27 C25          0.8870     5.9230     5.5890 c3         1 065       0.114400
     28 O26          2.2260     6.4340     5.6440 os         1 065      -0.422600
     29 C27          2.1560     7.8710     5.5770 c3         1 065       0.332900
     30 O28          3.3300     8.3600     4.9150 os         1 065      -0.398600
     31 C29          3.1250     8.4010     3.4990 c3         1 065       0.128400
     32 C30          1.6860     7.9180     3.2210 c3         1 065      -0.098400
     33 C31          0.9840     8.1450     4.5830 c3         1 065      -0.139700
     34 C32         -4.6040     5.6650     2.3940 c3         1 065      -0.048100
     35 C33         -3.8240     7.7370     3.5630 ca         1 065      -0.116500
     36 C34         -3.8130     8.5830     4.6570 ca         1 065      -0.121500
     37 C35         -4.5700     8.2790     5.7730 ca         1 065      -0.126000
     38 C36         -5.3390     7.1310     5.7940 ca         1 065      -0.121500
     39 C37         -5.3500     6.2850     4.7020 ca         1 065      -0.116500
     40 C38         -4.5920     6.5880     3.5860 ca         1 065      -0.071300
     41 H27          1.9970     8.3300     6.5450 h2         1 065       0.094700
     42 H31          0.5340     9.1230     4.6960 hc         1 065       0.087700
     43 H24         -0.7930     7.2870     5.4850 h1         1 065       0.088700
     44 H141        -8.4970     2.3800    -2.3240 hc         1 065       0.039367
     45 H142        -6.9990     1.7890    -3.0550 hc         1 065       0.039367
     46 H143        -7.1030     3.4580    -2.4770 hc         1 065       0.039367
     47 H13         -7.3520     2.6270    -0.1540 hc         1 065       0.051700
     48 H151        -8.3830     0.4160    -0.9380 hc         1 065       0.039367
     49 H152        -7.2070     0.2990     0.3780 hc         1 065       0.039367
     50 H153        -6.7320    -0.1210    -1.2740 hc         1 065       0.039367
     51 H121        -5.0940     3.1020    -1.1260 h1         1 065       0.060200
     52 H122        -4.9610     1.3940    -1.5670 h1         1 065       0.060200
     53 H161        -5.7330     3.5030     1.3680 h1         1 065       0.081200
     54 H162        -4.9660     2.3770     2.4950 h1         1 065       0.081200
     55 H17         -2.7510     2.9240     1.4600 h1         1 065       0.044700
     56 H18         -2.7270     4.1320    -0.2780 ho         1 065       0.404000
     57 H19         -3.6130     4.1070     3.4930 h1         1 065       0.091700
     58 H321        -4.4360     6.2400     1.4910 hc         1 065       0.061700
     59 H322        -5.5640     5.1670     2.3320 hc         1 065       0.061700
     60 H34         -3.2100     9.4830     4.6390 ha         1 065       0.124500
     61 H35         -4.5620     8.9420     6.6290 ha         1 065       0.125000
     62 H36         -5.9320     6.8940     6.6690 ha         1 065       0.124500
     63 H37         -5.9530     5.3850     4.7200 ha         1 065       0.124500
     64 H20         -1.6750     5.3270     1.6530 hn         1 065       0.320500
     65 H251         0.5090     5.7760     6.5930 h1         1 065       0.065200
     66 H252         0.8740     4.9870     5.0440 h1         1 065       0.065200
     67 H291         3.8330     7.7450     3.0070 h1         1 065       0.048200
     68 H292         3.2450     9.4160     3.1400 h1         1 065       0.048200
     69 H301         1.2230     8.5190     2.4480 hc         1 065       0.066700
     70 H302         1.6800     6.8670     2.9580 hc         1 065       0.066700
     71 H6          -2.9900    -0.4750    -1.4980 ha         1 065       0.160000
     72 H7          -0.5750    -0.6100    -1.9720 ha         1 065       0.152000
     73 H401         2.6480     0.5920     1.5190 h2         1 065       0.078700
     74 H402         1.8530    -1.0190     1.7400 h2         1 065       0.078700
     75 H4          -2.1510     0.7610     2.5020 ha         1 065       0.164000
     76 H33         -3.2310     7.9750     2.6880 ha         1 065       0.124500
@<TRIPOS>BOND
     1     1     9 ar
     2     1     2 1
     3     1     5 ar
     4     2     3 1
     5     3     4 1
     6     3    73 1
     7     3    74 1
     8     4     5 1
     9     5     6 ar
    10     6     7 ar
    11     6    75 1
    12     7    10 1
    13     7     8 ar
    14     8     9 ar
    15     8    71 1
    16     9    72 1
    17    10    13 1
    18    10    11 2
    19    10    12 2
    20    13    14 1
    21    13    18 1
    22    14    15 1
    23    14    51 1
    24    14    52 1
    25    15    16 1
    26    15    17 1
    27    15    47 1
    28    16    44 1
    29    16    45 1
    30    16    46 1
    31    17    48 1
    32    17    49 1
    33    17    50 1
    34    18    19 1
    35    18    53 1
    36    18    54 1
    37    19    20 1
    38    19    21 1
    39    19    55 1
    40    20    56 1
    41    21    34 1
    42    21    22 1
    43    21    57 1
    44    22    23 1
    45    22    64 1
    46    23    24 2
    47    23    25 1
    48    25    26 1
    49    26    27 1
    50    26    33 1
    51    26    43 1
    52    27    28 1
    53    27    65 1
    54    27    66 1
    55    28    29 1
    56    29    30 1
    57    29    33 1
    58    29    41 1
    59    30    31 1
    60    31    32 1
    61    31    67 1
    62    31    68 1
    63    32    33 1
    64    32    69 1
    65    32    70 1
    66    33    42 1
    67    34    40 1
    68    34    58 1
    69    34    59 1
    70    35    40 ar
    71    35    36 ar
    72    35    76 1
    73    36    37 ar
    74    36    60 1
    75    37    38 ar
    76    37    61 1
    77    38    39 ar
    78    38    62 1
    79    39    40 ar
    80    39    63 1
@<TRIPOS>SUBSTRUCTURE
     1 065         1 TEMP              0 ****  ****    0 ROOT
