@<TRIPOS>MOLECULE
066
   65    68     1     0     0
SMALL
bcc


@<TRIPOS>ATOM
      1 O5           0.5850    -0.4670     0.6010 o          1 066      -0.500100
      2 C26          1.5500     0.2420     0.3060 c          1 066       0.588700
      3 N4           2.0280     1.0570     1.5010 nz         1 066      -0.752400
      4 C8           2.2290     0.4300    -0.9360 ca         1 066      -0.470900
      5 C9           3.4370     1.2150    -1.0280 ca         1 066       0.485200
      6 N2           4.0680     1.5180    -2.1280 nb         1 066      -0.652000
      7 C10          3.4960     1.1450    -3.3440 ca         1 066       0.490600
      8 C16          2.3190     0.3350    -3.3980 ca         1 066      -0.234300
      9 C15          1.6840     0.1500    -4.6400 ca         1 066       0.038000
     10 C14          2.2040     0.6810    -5.8120 ca         1 066      -0.386500
     11 S            1.3410     0.6240    -7.2530 sy         1 066       1.434600
     12 O3          -0.0140     0.3800    -6.9710 o          1 066      -0.633800
     13 C17          1.9370    -0.7940    -7.9940 ca         1 066      -0.349500
     14 C22          1.0540    -1.8460    -8.2550 ca         1 066       0.005000
     15 C21          1.4790    -2.9760    -8.9590 ca         1 066      -0.222600
     16 C23          0.5800    -4.0960    -9.2550 c          1 066       0.572700
     17 N3          -0.8350    -3.7180    -9.6920 nx         1 066      -0.589200
     18 C25         -1.8330    -4.2880    -8.7500 c3         1 066       0.077600
     19 C24         -1.0770    -4.1950   -11.0800 c3         1 066       0.077600
     20 O4           0.8320    -5.2910    -9.2230 o          1 066      -0.407100
     21 C20          2.8200    -3.0830    -9.3760 ca         1 066       0.000000
     22 C19          3.7020    -2.0390    -9.1170 ca         1 066      -0.138000
     23 C18          3.2600    -0.9000    -8.4410 ca         1 066       0.043000
     24 O2           1.6920     1.7080    -8.0510 o          1 066      -0.633800
     25 C13          3.4200     1.3900    -5.7550 ca         1 066      -0.005000
     26 C11          4.0750     1.6260    -4.5560 ca         1 066      -0.111600
     27 C12          5.3360     2.4050    -4.5330 c3         1 066      -0.062800
     28 C7           1.7630    -0.1880    -2.1490 ca         1 066       0.385600
     29 N1           0.8610    -1.1960    -2.1140 nu         1 066      -0.594000
     30 C6           0.6270    -2.1590    -3.1390 ca         1 066       0.103600
     31 C27         -0.6170    -2.1840    -3.8040 ca         1 066      -0.189000
     32 C5           1.6000    -3.1370    -3.4130 ca         1 066      -0.144000
     33 C4           1.3230    -4.1460    -4.3380 ca         1 066      -0.082000
     34 C3           0.1070    -4.1870    -5.0050 ca         1 066      -0.149000
     35 C2          -0.8540    -3.1910    -4.7450 ca         1 066       0.135100
     36 O1          -1.9970    -3.2680    -5.5140 os         1 066      -0.356900
     37 C1          -3.1260    -2.5220    -5.0510 c3         1 066       0.106700
     38 HN4          2.9660     0.7580     1.7800 hn         1 066       0.469467
     39 HN4A         2.0490     2.0530     1.2640 hn         1 066       0.469467
     40 H9           3.9360     1.5860    -0.1110 h4         1 066       0.015100
     41 H15          0.7120    -0.3770    -4.7000 ha         1 066       0.168000
     42 H22          0.0160    -1.7650    -7.8760 ha         1 066       0.163000
     43 H25         -2.8670    -4.0280    -9.1020 hx         1 066       0.113367
     44 H25A        -1.6660    -3.8620    -7.7210 hx         1 066       0.113367
     45 H25B        -1.7160    -5.4050    -8.7200 hx         1 066       0.113367
     46 H24         -2.1260    -3.9340   -11.3860 hx         1 066       0.113367
     47 H24A        -0.3470    -3.7000   -11.7750 hx         1 066       0.113367
     48 H24B        -0.9400    -5.3100   -11.1180 hx         1 066       0.113367
     49 H20          3.1640    -3.9900    -9.9060 ha         1 066       0.176000
     50 H19          4.7510    -2.1100    -9.4530 ha         1 066       0.182000
     51 H18          3.9630    -0.0640    -8.2670 ha         1 066       0.168000
     52 H13          3.8390     1.8100    -6.6910 ha         1 066       0.174000
     53 H12          5.1930     3.3590    -3.9630 hc         1 066       0.071700
     54 H12A         6.1480     1.8210    -4.0300 hc         1 066       0.071700
     55 H12B         5.6710     2.6620    -5.5680 hc         1 066       0.071700
     56 HN1          0.4020    -1.4180    -1.2470 hn         1 066       0.484800
     57 H27         -1.3870    -1.4290    -3.5860 ha         1 066       0.166000
     58 H5           2.5720    -3.1320    -2.8970 ha         1 066       0.158000
     59 H4           2.0790    -4.9260    -4.5270 ha         1 066       0.164000
     60 H3          -0.1270    -4.9960    -5.7130 ha         1 066       0.155000
     61 H1          -3.9610    -2.8870    -5.7020 h1         1 066       0.062367
     62 H1A         -2.9500    -1.4300    -5.2060 h1         1 066       0.062367
     63 H1B         -3.3370    -2.7480    -3.9780 h1         1 066       0.062367
     64 H43          1.3810     0.9070     2.2880 hn         1 066       0.469467
     65 H31         -0.9170    -2.6930    -9.6810 hn         1 066       0.457800
@<TRIPOS>BOND
     1     1     2 2   
     2     2     3 1   
     3     2     4 1   
     4     3    38 1   
     5     3    39 1   
     6     3    64 1   
     7     4     5 ar  
     8     4    28 ar  
     9     5     6 ar  
    10     5    40 1   
    11     6     7 ar  
    12     7     8 ar  
    13     7    26 ar  
    14     8     9 ar  
    15     8    28 ar  
    16     9    10 ar  
    17     9    41 1   
    18    10    11 1   
    19    10    25 ar  
    20    11    12 2   
    21    11    13 1   
    22    11    24 2   
    23    13    14 ar  
    24    13    23 ar  
    25    14    15 ar  
    26    14    42 1   
    27    15    16 1   
    28    15    21 ar  
    29    16    17 1   
    30    16    20 2   
    31    17    18 1   
    32    17    19 1   
    33    17    65 1   
    34    18    43 1   
    35    18    44 1   
    36    18    45 1   
    37    19    46 1   
    38    19    47 1   
    39    19    48 1   
    40    21    22 ar  
    41    21    49 1   
    42    22    23 ar  
    43    22    50 1   
    44    23    51 1   
    45    25    26 ar  
    46    25    52 1   
    47    26    27 1   
    48    27    53 1   
    49    27    54 1   
    50    27    55 1   
    51    28    29 1   
    52    29    30 1   
    53    29    56 1   
    54    30    31 ar  
    55    30    32 ar  
    56    31    35 ar  
    57    31    57 1   
    58    32    33 ar  
    59    32    58 1   
    60    33    34 ar  
    61    33    59 1   
    62    34    35 ar  
    63    34    60 1   
    64    35    36 1   
    65    36    37 1   
    66    37    61 1   
    67    37    62 1   
    68    37    63 1   
@<TRIPOS>SUBSTRUCTURE
     1 066         1 TEMP              0 ****  ****    0 ROOT
