@<TRIPOS>MOLECULE
066
   64    67     1     0     0
SMALL
bcc


@<TRIPOS>ATOM
      1 O5           0.0000     0.0000     0.0000 o          1 066      -0.434100
      2 C26          1.2170     0.0000     0.0000 c          1 066       0.363700
      3 N4           1.8910     0.0000     1.1670 nz         1 066       0.199600
      4 C8           1.9530    -0.0060    -1.2740 ca         1 066      -0.411900
      5 C9           3.3560     0.0690    -1.2840 ca         1 066       0.420200
      6 N2           4.0350     0.0660    -2.4020 nb         1 066      -0.520000
      7 C10          3.4350    -0.0090    -3.5990 ca         1 066       0.437600
      8 C16          2.0240    -0.0880    -3.6850 ca         1 066      -0.219300
      9 C15          1.4080    -0.1670    -4.9410 ca         1 066       0.047000
     10 C14          2.1740    -0.1660    -6.0690 ca         1 066      -0.123500
     11 S            1.3980    -0.2640    -7.6490 sy         1 066       0.963600
     12 O3           0.0820    -0.7490    -7.4190 o          1 066      -0.572300
     13 C17          1.2240     1.3840    -8.2470 ca         1 066      -0.162500
     14 C22          0.1290     2.1370    -7.8820 ca         1 066       0.051000
     15 C21         -0.0070     3.4420    -8.3570 ca         1 066      -0.171600
     16 C23         -1.1790     4.2560    -7.9680 c          1 066       0.605700
     17 N3          -1.0330     5.5730    -7.7210 n          1 066      -0.158800
     18 C25         -2.1720     6.3590    -7.2390 c3         1 066       0.079300
     19 C24          0.2640     6.2190    -7.9340 c3         1 066       0.079300
     20 O4          -2.2740     3.7380    -7.8710 o          1 066      -0.631100
     21 C20          0.9680     3.9760    -9.2000 ca         1 066      -0.048000
     22 C19          2.0590     3.2120    -9.5590 ca         1 066      -0.129000
     23 C18          2.1900     1.9210    -9.0790 ca         1 066       0.016000
     24 O2           2.3250    -0.9090    -8.5110 o          1 066      -0.572300
     25 C13          3.5610    -0.0880    -5.9870 ca         1 066       0.035000
     26 C11          4.1910    -0.0110    -4.7820 ca         1 066      -0.155600
     27 C12          5.6940     0.0740    -4.7180 c3         1 066       0.069200
     28 C7           1.2620    -0.0930    -2.4920 ca         1 066       0.251600
     29 N1          -0.1130    -0.1740    -2.5260 nu         1 066      -0.301000
     30 C6          -0.8760     0.9730    -2.7560 ca         1 066       0.066600
     31 C27         -2.2590     0.8830    -2.8450 ca         1 066      -0.191000
     32 C5          -0.2520     2.2080    -2.8910 ca         1 066      -0.242000
     33 C4          -1.0070     3.3430    -3.1180 ca         1 066      -0.008000
     34 C3          -2.3820     3.2530    -3.2120 ca         1 066      -0.233000
     35 C2          -3.0120     2.0240    -3.0730 ca         1 066       0.214100
     36 O1          -4.3650     1.9390    -3.1610 os         1 066      -0.299900
     37 C1          -5.0780     3.1550    -3.3980 c3         1 066       0.243700
     38 HN4          1.2410    -0.0430     1.9280 hn         1 066       0.246133
     39 HN4A         2.4980    -0.7950     1.2020 hn         1 066       0.246133
     40 H9           3.8880     0.1310    -0.3430 h4         1 066      -0.048900
     41 H15          0.3420    -0.3480    -5.0110 ha         1 066       0.150000
     42 H22         -0.6590     1.6940    -7.2850 ha         1 066       0.138000
     43 H25         -3.0810     6.0030    -7.7090 h1         1 066       0.014700
     44 H25A        -2.0220     7.4030    -7.4880 h1         1 066       0.014700
     45 H25B        -2.2560     6.2520    -6.1640 h1         1 066       0.014700
     46 H24          0.3010     7.1480    -7.3780 h1         1 066       0.014700
     47 H24A         0.3970     6.4240    -8.9890 h1         1 066       0.014700
     48 H24B         1.0550     5.5620    -7.5910 h1         1 066       0.014700
     49 H20          0.8670     4.9880    -9.5750 ha         1 066       0.130000
     50 H19          2.8180     3.6270   -10.2120 ha         1 066       0.118000
     51 H18          3.0490     1.3250    -9.3650 ha         1 066       0.125000
     52 H13          4.1490    -0.0890    -6.8970 ha         1 066       0.139000
     53 H12          6.1010     0.0250    -5.7200 hc         1 066       0.021700
     54 H12A         6.0770    -0.7520    -4.1310 hc         1 066       0.021700
     55 H12B         5.9830     1.0100    -4.2560 hc         1 066       0.021700
     56 HN1         -0.5650    -1.0600    -2.4170 hn         1 066       0.319800
     57 H27         -2.7480    -0.0770    -2.7350 ha         1 066       0.129000
     58 H5           0.8260     2.2800    -2.8170 ha         1 066       0.103000
     59 H4          -0.5190     4.3040    -3.2250 ha         1 066       0.101000
     60 H3          -2.9710     4.1450    -3.3900 ha         1 066       0.132000
     61 H1          -4.8550     3.8640    -2.6090 h1         1 066       0.004367
     62 H1A         -4.7760     3.5700    -4.3520 h1         1 066       0.004367
     63 H1B         -6.1420     2.9530    -3.4120 h1         1 066       0.004367
     64 H43          2.4250     0.8430     1.2440 hn         1 066       0.246133
@<TRIPOS>BOND
     1     1     2 2   
     2     2     3 1   
     3     2     4 1   
     4     3    38 1   
     5     3    39 1   
     6     3    64 1   
     7     4     5 ar  
     8     4    28 ar  
     9     5     6 ar  
    10     5    40 1   
    11     6     7 ar  
    12     7     8 ar  
    13     7    26 ar  
    14     8     9 ar  
    15     8    28 ar  
    16     9    10 ar  
    17     9    41 1   
    18    10    11 1   
    19    10    25 ar  
    20    11    12 2   
    21    11    13 1   
    22    11    24 2   
    23    13    14 ar  
    24    13    23 ar  
    25    14    15 ar  
    26    14    42 1   
    27    15    16 1   
    28    15    21 ar  
    29    16    17 1   
    30    16    20 2   
    31    17    18 1   
    32    17    19 1   
    33    18    43 1   
    34    18    44 1   
    35    18    45 1   
    36    19    46 1   
    37    19    47 1   
    38    19    48 1   
    39    21    22 ar  
    40    21    49 1   
    41    22    23 ar  
    42    22    50 1   
    43    23    51 1   
    44    25    26 ar  
    45    25    52 1   
    46    26    27 1   
    47    27    53 1   
    48    27    54 1   
    49    27    55 1   
    50    28    29 1   
    51    29    30 1   
    52    29    56 1   
    53    30    31 ar  
    54    30    32 ar  
    55    31    35 ar  
    56    31    57 1   
    57    32    33 ar  
    58    32    58 1   
    59    33    34 ar  
    60    33    59 1   
    61    34    35 ar  
    62    34    60 1   
    63    35    36 1   
    64    36    37 1   
    65    37    61 1   
    66    37    62 1   
    67    37    63 1   
@<TRIPOS>SUBSTRUCTURE
     1 066         1 TEMP              0 ****  ****    0 ROOT
