@<TRIPOS>MOLECULE
068
   42    43     1     0     0
SMALL
bcc


@<TRIPOS>ATOM
      1 C19          0.0000     0.0000     0.0000 c3         1 068      -0.093100
      2 C1           1.5060     0.0000     0.0000 c          1 068       0.630700
      3 O2           2.1140     0.0000     1.0500 o          1 068      -0.573100
      4 C14          2.2420     0.0000    -1.2740 ca         1 068      -0.209600
      5 C15          3.6410     0.0010    -1.2750 ca         1 068      -0.044500
      6 C16          4.3240     0.0020    -2.4640 ca         1 068      -0.128000
      7 C13          1.5420    -0.0040    -2.4870 ca         1 068      -0.044500
      8 C12          2.2290    -0.0030    -3.6730 ca         1 068      -0.128000
      9 C11          3.6250     0.0020    -3.6720 cp         1 068       0.030000
     10 C8           4.3650     0.0040    -4.9560 cp         1 068      -0.075000
     11 C9           3.6710     0.0040    -6.1650 ca         1 068      -0.091500
     12 C10          4.3650     0.0050    -7.3570 ca         1 068      -0.101000
     13 C7           5.7600     0.0090    -4.9600 ca         1 068      -0.091500
     14 C6           6.4440     0.0110    -6.1580 ca         1 068      -0.101000
     15 C5           5.7490     0.0060    -7.3540 ca         1 068      -0.053300
     16 C4           6.5020     0.0060    -8.6590 c3         1 068       0.017900
     17 C3           6.7560     1.4490    -9.1010 c3         1 068      -0.053400
     18 C2           7.5210     1.4490   -10.4260 c3         1 068       0.207100
     19 O1           8.8170     0.8800   -10.2290 oh         1 068      -0.592800
     20 C17          7.6670     2.8860   -10.9310 c3         1 068      -0.153400
     21 C18          8.3110     2.8780   -12.2930 c          1 068       0.990600
     22 O19          8.5390     4.0340   -12.9340 o          1 068      -0.906800
     23 O20          8.6200     1.8300   -12.8080 o          1 068      -0.906800
     24 H191        -0.3610     0.8830    -0.5130 hc         1 068       0.024033
     25 H192        -0.3610     0.0030     1.0210 hc         1 068       0.024033
     26 H193        -0.3610    -0.8860    -0.5080 hc         1 068       0.024033
     27 H15          4.1840     0.0010    -0.3380 ha         1 068       0.111000
     28 H13          0.4590    -0.0080    -2.4880 ha         1 068       0.111000
     29 H16          5.4080     0.0050    -2.4660 ha         1 068       0.118000
     30 H12          1.6880    -0.0050    -4.6110 ha         1 068       0.118000
     31 H9           2.5890    -0.0570    -6.1680 ha         1 068       0.105000
     32 H7           6.3040    -0.0450    -4.0250 ha         1 068       0.105000
     33 H10          3.8270    -0.0050    -8.2970 ha         1 068       0.112000
     34 H6           7.5270     0.0050    -6.1610 ha         1 068       0.112000
     35 H41C         5.9170    -0.5050    -9.4140 hc         1 068       0.021700
     36 H42C         7.4490    -0.5040    -8.5300 hc         1 068       0.021700
     37 H31C         5.8100     1.9590    -9.2310 hc         1 068       0.018200
     38 H32C         7.3420     1.9600    -8.3460 hc         1 068       0.018200
     39 H2           6.9770     0.8640   -11.1570 h1         1 068       0.008700
     40 H1           8.9120     0.1190   -10.7770 ho         1 068       0.392000
     41 H171         8.2860     3.4490   -10.2430 hc         1 068       0.014200
     42 H172         6.6890     3.3460   -10.9960 hc         1 068       0.014200
@<TRIPOS>BOND
     1     1     2 1   
     2     1    24 1   
     3     1    25 1   
     4     1    26 1   
     5     2     3 2   
     6     2     4 1   
     7     4     5 ar  
     8     4     7 ar  
     9     5     6 ar  
    10     5    27 1   
    11     6     9 ar  
    12     6    29 1   
    13     7     8 ar  
    14     7    28 1   
    15     8     9 ar  
    16     8    30 1   
    17     9    10 1   
    18    10    11 ar  
    19    10    13 ar  
    20    11    12 ar  
    21    11    31 1   
    22    12    15 ar  
    23    12    33 1   
    24    13    14 ar  
    25    13    32 1   
    26    14    15 ar  
    27    14    34 1   
    28    15    16 1   
    29    16    17 1   
    30    16    35 1   
    31    16    36 1   
    32    17    18 1   
    33    17    37 1   
    34    17    38 1   
    35    18    19 1   
    36    18    20 1   
    37    18    39 1   
    38    19    40 1   
    39    20    21 1   
    40    20    41 1   
    41    20    42 1   
    42    21    22 1   
    43    21    23 1   
@<TRIPOS>SUBSTRUCTURE
     1 068         1 TEMP              0 ****  ****    0 ROOT
