@<TRIPOS>MOLECULE
molecule
   42    43     1     0     0
SMALL
bcc


@<TRIPOS>ATOM
      1 C19          0.0000     0.0000     0.0000 c3         1 068      -0.192100
      2 C1           1.5060     0.0000     0.0000 c          1 068       0.578700
      3 O2           2.1140     0.0000     1.0500 o          1 068      -0.540100
      4 C14          2.2420     0.0000    -1.2740 ca         1 068      -0.196600
      5 C15          3.6410     0.0010    -1.2750 ca         1 068      -0.076000
      6 C16          4.3240     0.0020    -2.4640 ca         1 068      -0.144500
      7 C13          1.5420    -0.0040    -2.4870 ca         1 068      -0.076000
      8 C12          2.2290    -0.0030    -3.6730 ca         1 068      -0.144500
      9 C11          3.6250     0.0020    -3.6720 cp         1 068       0.019000
     10 C8           4.3650     0.0040    -4.9560 cp         1 068      -0.075000
     11 C9           3.6710     0.0040    -6.1650 ca         1 068      -0.111500
     12 C10          4.3650     0.0050    -7.3570 ca         1 068      -0.130000
     13 C7           5.7600     0.0090    -4.9600 ca         1 068      -0.111500
     14 C6           6.4440     0.0110    -6.1580 ca         1 068      -0.130000
     15 C5           5.7490     0.0060    -7.3540 ca         1 068      -0.048300
     16 C4           6.5020     0.0060    -8.6590 c3         1 068      -0.046100
     17 C3           6.7560     1.4490    -9.1010 c3         1 068      -0.095400
     18 C2           7.5210     1.4490   -10.4260 c3         1 068       0.165100
     19 O1           8.8170     0.8800   -10.2290 oh         1 068      -0.608800
     20 C17          7.6670     2.8860   -10.9310 c3         1 068      -0.193400
     21 C18          8.3110     2.8780   -12.2930 c          1 068       0.899600
     22 O19          8.5390     4.0340   -12.9340 o          1 068      -0.856800
     23 O20          8.6200     1.8300   -12.8080 o          1 068      -0.856800
     24 H191        -0.3610     0.8830    -0.5130 hc         1 068       0.059033
     25 H192        -0.3610     0.0030     1.0210 hc         1 068       0.059033
     26 H193        -0.3610    -0.8860    -0.5080 hc         1 068       0.059033
     27 H15          4.1840     0.0010    -0.3380 ha         1 068       0.138500
     28 H13          0.4590    -0.0080    -2.4880 ha         1 068       0.138500
     29 H16          5.4080     0.0050    -2.4660 ha         1 068       0.139500
     30 H12          1.6880    -0.0050    -4.6110 ha         1 068       0.139500
     31 H9           2.5890    -0.0570    -6.1680 ha         1 068       0.126000
     32 H7           6.3040    -0.0450    -4.0250 ha         1 068       0.126000
     33 H10          3.8270    -0.0050    -8.2970 ha         1 068       0.138500
     34 H6           7.5270     0.0050    -6.1610 ha         1 068       0.138500
     35 H41C         5.9170    -0.5050    -9.4140 hc         1 068       0.051200
     36 H42C         7.4490    -0.5040    -8.5300 hc         1 068       0.051200
     37 H31C         5.8100     1.9590    -9.2310 hc         1 068       0.045200
     38 H32C         7.3420     1.9600    -8.3460 hc         1 068       0.045200
     39 H2           6.9770     0.8640   -11.1570 h1         1 068       0.037700
     40 H1           8.9120     0.1190   -10.7770 ho         1 068       0.402000
     41 H171         8.2860     3.4490   -10.2430 hc         1 068       0.038700
     42 H172         6.6890     3.3460   -10.9960 hc         1 068       0.038700
@<TRIPOS>BOND
     1     1     2 1   
     2     2     3 2   
     3     2     4 1   
     4     4     5 ar  
     5     4     7 ar  
     6     5     6 ar  
     7     6     9 ar  
     8     7     8 ar  
     9     8     9 ar  
    10     9    10 1   
    11    10    11 ar  
    12    10    13 ar  
    13    11    12 ar  
    14    12    15 ar  
    15    13    14 ar  
    16    14    15 ar  
    17    15    16 1   
    18    16    17 1   
    19    17    18 1   
    20    18    19 1   
    21    18    20 1   
    22    20    21 1   
    23    21    22 1   
    24    21    23 1   
    25     1    24 1   
    26     1    25 1   
    27     1    26 1   
    28     5    27 1   
    29     7    28 1   
    30     6    29 1   
    31     8    30 1   
    32    11    31 1   
    33    13    32 1   
    34    12    33 1   
    35    14    34 1   
    36    16    35 1   
    37    16    36 1   
    38    17    37 1   
    39    17    38 1   
    40    18    39 1   
    41    19    40 1   
    42    20    41 1   
    43    20    42 1   
@<TRIPOS>SUBSTRUCTURE
     1 068         1 TEMP              0 ****  ****    0 ROOT
