@<TRIPOS>MOLECULE
068
   42    43     1     0     0
SMALL
bcc


@<TRIPOS>ATOM
      1 C19         -0.2150    -0.0050    -0.5940 c3         1 068      -0.198100
      2 C1           1.2680     0.1640    -0.4650 c          1 068       0.582700
      3 O2           1.7810     0.4040     0.6390 o          1 068      -0.557100
      4 C14          2.0750     0.0290    -1.6900 ca         1 068      -0.199600
      5 C15          3.4740     0.0880    -1.5970 ca         1 068      -0.081500
      6 C16          4.2660    -0.0370    -2.7330 ca         1 068      -0.147500
      7 C13          1.4880    -0.1570    -2.9480 ca         1 068      -0.081500
      8 C12          2.2790    -0.2800    -4.0850 ca         1 068      -0.147500
      9 C11          3.6790    -0.2220    -3.9950 cp         1 068       0.035000
     10 C8           4.5040    -0.3500    -5.1920 cp         1 068      -0.092000
     11 C9           5.6780     0.4010    -5.3310 ca         1 068      -0.119500
     12 C10          6.4570     0.2840    -6.4800 ca         1 068      -0.134500
     13 C7           4.1300    -1.2260    -6.2250 ca         1 068      -0.119500
     14 C6           4.9090    -1.3460    -7.3710 ca         1 068      -0.134500
     15 C5           6.0810    -0.5860    -7.5080 ca         1 068      -0.042300
     16 C4           6.9020    -0.7360    -8.7400 c3         1 068      -0.057100
     17 C3           6.2340    -0.0850    -9.9390 c3         1 068      -0.100400
     18 C2           6.7330    -0.6990   -11.2490 c3         1 068       0.151100
     19 O1           6.9110     0.3270   -12.2250 oh         1 068      -0.629800
     20 C17          5.7920    -1.7790   -11.7600 c3         1 068      -0.224400
     21 C18          5.5110    -2.8330   -10.6770 c          1 068       0.909600
     22 O19          6.4440    -3.6160   -10.3400 o          1 068      -0.848800
     23 O20          4.3550    -2.8570   -10.1600 o          1 068      -0.848800
     24 H191        -0.7040     0.0720     0.4070 hc         1 068       0.060033
     25 H192        -0.4480    -1.0040    -1.0360 hc         1 068       0.060033
     26 H193        -0.6300     0.7910    -1.2590 hc         1 068       0.060033
     27 H15          3.9370     0.2330    -0.6080 ha         1 068       0.136000
     28 H13          0.3930    -0.2050    -3.0490 ha         1 068       0.136000
     29 H16          5.3620    -0.0000    -2.6440 ha         1 068       0.143000
     30 H12          1.8050    -0.4200    -5.0700 ha         1 068       0.143000
     31 H9           5.9820     1.0960    -4.5350 ha         1 068       0.123000
     32 H7           3.2190    -1.8350    -6.1250 ha         1 068       0.123000
     33 H10          7.3750     0.8820    -6.5780 ha         1 068       0.171500
     34 H6           4.6180    -2.0410    -8.1920 ha         1 068       0.171500
     35 H41C         7.0300    -1.8400    -8.9530 hc         1 068       0.072700
     36 H42C         7.9210    -0.2930    -8.5890 hc         1 068       0.072700
     37 H31C         6.4400     1.0160    -9.9400 hc         1 068       0.045700
     38 H32C         5.1230    -0.2330    -9.8690 hc         1 068       0.045700
     39 H2           7.7690    -1.1230   -11.1150 h1         1 068       0.074700
     40 H1           6.0310     0.6240   -12.4800 ho         1 068       0.384000
     41 H171         6.2550    -2.2800   -12.6450 hc         1 068       0.032200
     42 H172         4.8250    -1.3160   -12.0810 hc         1 068       0.032200
@<TRIPOS>BOND
     1     1     2 1   
     2     1    24 1   
     3     1    25 1   
     4     1    26 1   
     5     2     3 2   
     6     2     4 1   
     7     4     5 ar  
     8     4     7 ar  
     9     5     6 ar  
    10     5    27 1   
    11     6     9 ar  
    12     6    29 1   
    13     7     8 ar  
    14     7    28 1   
    15     8     9 ar  
    16     8    30 1   
    17     9    10 1   
    18    10    11 ar  
    19    10    13 ar  
    20    11    12 ar  
    21    11    31 1   
    22    12    15 ar  
    23    12    33 1   
    24    13    14 ar  
    25    13    32 1   
    26    14    15 ar  
    27    14    34 1   
    28    15    16 1   
    29    16    17 1   
    30    16    35 1   
    31    16    36 1   
    32    17    18 1   
    33    17    37 1   
    34    17    38 1   
    35    18    19 1   
    36    18    20 1   
    37    18    39 1   
    38    19    40 1   
    39    20    21 1   
    40    20    41 1   
    41    20    42 1   
    42    21    22 1   
    43    21    23 1   
@<TRIPOS>SUBSTRUCTURE
     1 068         1 TEMP              0 ****  ****    0 ROOT
