@<TRIPOS>MOLECULE
molecule
   18    18     1     0     0
SMALL
bcc


@<TRIPOS>ATOM
      1 C3           0.0000     0.0000     0.0000 ca         1 069       0.100100
      2 O3          -0.6790     0.0000    -1.1780 oh         1 069      -0.517100
      3 C2           1.3850     0.0000     0.0000 ca         1 069      -0.093000
      4 C1           2.0780     0.0000     1.2110 ca         1 069      -0.125600
      5 C            3.5570     0.0010     1.2200 c          1 069       0.686700
      6 O            4.1700     0.0020     0.1710 o          1 069      -0.570100
      7 N            4.2230     0.0010     2.3910 ns         1 069      -0.470400
      8 C6           1.3700    -0.0010     2.4140 ca         1 069      -0.121000
      9 C5          -0.0100    -0.0010     2.4020 ca         1 069      -0.122000
     10 C4          -0.6950     0.0050     1.2010 ca         1 069      -0.129000
     11 O2           5.6390     0.0020     2.4000 oh         1 069      -0.359100
     12 H3          -0.7900    -0.8870    -1.4770 ho         1 069       0.424000
     13 H2           1.9270     0.0900    -0.9340 ha         1 069       0.172000
     14 H4          -1.7780     0.0050     1.1980 ha         1 069       0.145000
     15 H6           1.9040    -0.0030     3.3570 ha         1 069       0.122000
     16 H            3.7170     0.0270     3.2550 hn         1 069       0.321500
     17 HA           5.9480    -0.0940     3.2850 ho         1 069       0.399000
     18 H5          -0.5580     0.0000     3.3370 ha         1 069       0.138000
@<TRIPOS>BOND
     1     1     2 1   
     2     1     3 ar  
     3     1    10 ar  
     4     3     4 ar  
     5     4     5 1   
     6     4     8 ar  
     7     5     6 2   
     8     5     7 1   
     9     7    11 1   
    10     8     9 ar  
    11     9    10 ar  
    12     2    12 1   
    13     3    13 1   
    14    10    14 1   
    15     8    15 1   
    16     7    16 1   
    17    11    17 1   
    18     9    18 1   
@<TRIPOS>SUBSTRUCTURE
     1 069         1 TEMP              0 ****  ****    0 ROOT
