@<TRIPOS>MOLECULE
069
   19    19     1     0     0
SMALL
bcc


@<TRIPOS>ATOM
      1 C3           0.1990    -0.1240    -0.0760 ca         1 069       0.149100
      2 O3          -0.2690    -0.3980    -1.3310 oh         1 069      -0.467100
      3 C2           1.5900     0.0740     0.0250 ca         1 069      -0.083000
      4 C1           2.1340     0.3460     1.2840 ca         1 069      -0.158600
      5 C            3.5720     0.5780     1.3560 c          1 069       0.622700
      6 O            4.3390     1.2670     0.7220 o          1 069      -0.360100
      7 N            4.2870    -0.2430     2.5050 ny         1 069      -0.484300
      8 C6           1.3220     0.4340     2.4250 ca         1 069      -0.142000
      9 C5          -0.0530     0.2450     2.3000 ca         1 069      -0.071000
     10 C4          -0.6220    -0.0400     1.0590 ca         1 069      -0.148000
     11 O2           4.7070    -1.3980     1.9420 oh         1 069      -0.346300
     12 H3          -1.2360    -0.4880    -1.2930 ho         1 069       0.448000
     13 H2           2.2150     0.0140    -0.8810 ha         1 069       0.186000
     14 H4          -1.7100    -0.1910     0.9700 ha         1 069       0.170000
     15 H6           1.7390     0.6950     3.4090 ha         1 069       0.135000
     16 H            5.0880     0.3050     2.8650 hn         1 069       0.456300
     17 HA           5.2480    -1.8990     2.5940 ho         1 069       0.469000
     18 H5          -0.6990     0.3260     3.1900 ha         1 069       0.170000
     19 HN3          3.6130    -0.4340     3.2640 hn         1 069       0.456300
@<TRIPOS>BOND
     1     1     2 1   
     2     1     3 ar  
     3     1    10 ar  
     4     2    12 1   
     5     3     4 ar  
     6     3    13 1   
     7     4     5 1   
     8     4     8 ar  
     9     5     6 2   
    10     5     7 1   
    11     7    11 1   
    12     7    16 1   
    13     7    19 1   
    14     8     9 ar  
    15     8    15 1   
    16     9    10 ar  
    17     9    18 1   
    18    10    14 1   
    19    11    17 1   
@<TRIPOS>SUBSTRUCTURE
     1 069         1 TEMP              0 ****  ****    0 ROOT
