@<TRIPOS>MOLECULE
molecule
   22    22     1     0     0
SMALL
bcc


@<TRIPOS>ATOM
      1 Br           0.0000     0.0000     0.0000 br         1 06B      -0.144100
      2 C10          1.8910     0.0000     0.0000 ca         1 06B      -0.077900
      3 C12          2.5810     0.0000     1.2020 ca         1 06B       0.170100
      4 O13          1.9040    -0.0010     2.3770 os         1 06B      -0.327900
      5 C14          1.5800    -1.2740     2.9390 c3         1 06B       0.144700
      6 C4           3.9850     0.0000     1.1980 ca         1 06B      -0.106600
      7 C2           4.7290    -0.0010     2.4680 c          1 06B       0.899200
      8 O3           5.0690     1.1650     3.0500 o          1 06B      -0.824300
      9 O1           5.0360    -1.0540     2.9910 o          1 06B      -0.824300
     10 C9           2.5810    -0.0050    -1.1990 ca         1 06B      -0.095000
     11 C8           3.9630    -0.0060    -1.2130 ca         1 06B      -0.246000
     12 C5           4.6730    -0.0000    -0.0240 ca         1 06B       0.166100
     13 O6           6.0300     0.0000    -0.0420 os         1 06B      -0.286900
     14 C7           6.6620     0.0010    -1.3230 c3         1 06B       0.129700
     15 H1           1.9120    -1.3090     3.9700 h1         1 06B       0.032367
     16 H2           2.0760    -2.0550     2.3740 h1         1 06B       0.032367
     17 H3           0.5080    -1.4250     2.8990 h1         1 06B       0.032367
     18 H5           2.0330    -0.0100    -2.1340 ha         1 06B       0.120000
     19 H6           4.4930    -0.0080    -2.1580 ha         1 06B       0.119000
     20 H7           6.3610     0.8840    -1.8730 h1         1 06B       0.028700
     21 H8           7.7380     0.0040    -1.1940 h1         1 06B       0.028700
     22 H9           6.3670    -0.8850    -1.8710 h1         1 06B       0.028700
@<TRIPOS>BOND
     1     9     7 1
     2     8     7 1
     3     7     6 1
     4     4     5 1
     5     4     3 1
     6     6     3 ar
     7     6    12 ar
     8    13    14 1
     9    13    12 1
    10     3     2 ar
    11    12    11 ar
    12     2     1 1
    13     2    10 ar
    14    11    10 ar
    15     5    15 1
    16     5    16 1
    17     5    17 1
    18    10    18 1
    19    11    19 1
    20    14    20 1
    21    14    21 1
    22    14    22 1
@<TRIPOS>SUBSTRUCTURE
     1 06B         1 TEMP              0 ****  ****    0 ROOT
