@<TRIPOS>MOLECULE
06B
   22    22     1     0     0
SMALL
bcc


@<TRIPOS>ATOM
      1 Br          -0.1390     0.0580    -0.2290 br         1 06B      -0.136100
      2 C10          1.7410     0.1630    -0.2280 ca         1 06B      -0.054900
      3 C12          2.5150     0.0730     0.9440 ca         1 06B       0.148100
      4 O13          1.8690    -0.2170     2.1390 os         1 06B      -0.338900
      5 C14          1.7520     0.9010     3.0220 c3         1 06B       0.101700
      6 C4           3.9200     0.1680     0.9000 ca         1 06B      -0.136600
      7 C2           4.7490     0.0950     2.1850 c          1 06B       0.928200
      8 O3           4.8420     1.1440     2.8780 o          1 06B      -0.815300
      9 O1           5.2920    -1.0060     2.4710 o          1 06B      -0.815300
     10 C9           2.3760     0.3350    -1.4620 ca         1 06B      -0.122000
     11 C8           3.7590     0.4210    -1.5300 ca         1 06B      -0.172000
     12 C5           4.5240     0.3400    -0.3530 ca         1 06B       0.129100
     13 O6           5.8890     0.5520    -0.5120 os         1 06B      -0.351900
     14 C7           6.6960    -0.6000    -0.2710 c3         1 06B       0.101700
     15 H1           2.7510     1.3780     3.1970 h1         1 06B       0.047700
     16 H2           1.3530     0.4480     3.9630 h1         1 06B       0.047700
     17 H3           1.0240     1.6360     2.6010 h1         1 06B       0.047700
     18 H5           1.7830     0.4030    -2.3850 ha         1 06B       0.123000
     19 H6           4.2660     0.5640    -2.4940 ha         1 06B       0.128000
     20 H7           6.5780    -1.3170    -1.1210 h1         1 06B       0.046367
     21 H8           7.7370    -0.1920    -0.2470 h1         1 06B       0.046367
     22 H9           6.4340    -1.0870     0.7020 h1         1 06B       0.046367
@<TRIPOS>BOND
     1     1     2 1   
     2     2     3 ar  
     3     2    10 ar  
     4     3     4 1   
     5     3     6 ar  
     6     4     5 1   
     7     5    15 1   
     8     5    16 1   
     9     5    17 1   
    10     6     7 1   
    11     6    12 ar  
    12     7     8 1   
    13     7     9 1   
    14    10    11 ar  
    15    10    18 1   
    16    11    12 ar  
    17    11    19 1   
    18    12    13 1   
    19    13    14 1   
    20    14    20 1   
    21    14    21 1   
    22    14    22 1   
@<TRIPOS>SUBSTRUCTURE
     1 06B         1 TEMP              0 ****  ****    0 ROOT
