@<TRIPOS>MOLECULE
06B
   22    22     1     0     0
SMALL
bcc


@<TRIPOS>ATOM
      1 Br           0.0000     0.0000     0.0000 br         1 06B      -0.185100
      2 C10          1.8910     0.0000     0.0000 ca         1 06B      -0.022900
      3 C12          2.5810     0.0000     1.2020 ca         1 06B       0.181100
      4 O13          1.9040    -0.0010     2.3770 os         1 06B      -0.313900
      5 C14          1.5800    -1.2740     2.9390 c3         1 06B       0.255700
      6 C4           3.9850     0.0000     1.1980 ca         1 06B      -0.111600
      7 C2           4.7290    -0.0010     2.4680 c          1 06B       0.991200
      8 O3           5.0690     1.1650     3.0500 o          1 06B      -0.877300
      9 O1           5.0360    -1.0540     2.9910 o          1 06B      -0.877300
     10 C9           2.5810    -0.0050    -1.1990 ca         1 06B      -0.076000
     11 C8           3.9630    -0.0060    -1.2130 ca         1 06B      -0.242000
     12 C5           4.6730    -0.0000    -0.0240 ca         1 06B       0.177100
     13 O6           6.0300     0.0000    -0.0420 os         1 06B      -0.265900
     14 C7           6.6620     0.0010    -1.3230 c3         1 06B       0.237700
     15 H1           2.0760    -2.0550     2.3740 h1         1 06B      -0.010967
     16 H2           1.9120    -1.3090     3.9700 h1         1 06B      -0.010967
     17 H3           0.5080    -1.4250     2.8990 h1         1 06B      -0.010967
     18 H5           2.0330    -0.0100    -2.1340 ha         1 06B       0.096000
     19 H6           4.4930    -0.0080    -2.1580 ha         1 06B       0.108000
     20 H7           7.7380     0.0040    -1.1940 h1         1 06B      -0.013633
     21 H8           6.3670    -0.8850    -1.8710 h1         1 06B      -0.013633
     22 H9           6.3610     0.8840    -1.8730 h1         1 06B      -0.013633
@<TRIPOS>BOND
     1     1     2 1   
     2     2     3 ar  
     3     2    10 ar  
     4     3     4 1   
     5     3     6 ar  
     6     4     5 1   
     7     5    15 1   
     8     5    16 1   
     9     5    17 1   
    10     6     7 1   
    11     6    12 ar  
    12     7     8 1   
    13     7     9 1   
    14    10    11 ar  
    15    10    18 1   
    16    11    12 ar  
    17    11    19 1   
    18    12    13 1   
    19    13    14 1   
    20    14    20 1   
    21    14    21 1   
    22    14    22 1   
@<TRIPOS>SUBSTRUCTURE
     1 06B         1 TEMP              0 ****  ****    0 ROOT
