@<TRIPOS>MOLECULE
06C
    5     4     1     0     0
SMALL
bcc


@<TRIPOS>ATOM
      1 C1           0.0000     0.0000     0.0000 c3         1 06C       0.412800
      2 H           -0.3610     0.0000     1.0210 h1         1 06C       0.012700
      3 HA          -0.3610     0.8850    -0.5110 h1         1 06C       0.012700
      4 HB          -0.3610    -0.8850    -0.5110 h1         1 06C       0.012700
      5 I1           2.1620     0.0000     0.0000 i          1 06C      -0.450900
@<TRIPOS>BOND
     1     1     2 1   
     2     1     3 1   
     3     1     4 1   
     4     1     5 1   
@<TRIPOS>SUBSTRUCTURE
     1 06C         1 TEMP              0 ****  ****    0 ROOT
