@<TRIPOS>MOLECULE
06C
    5     4     1     0     0
SMALL
bcc


@<TRIPOS>ATOM
      1 C1           0.0120    -0.0000    -0.0000 c3         1 06C       0.035800
      2 H           -0.3530    -0.0000     1.0460 h1         1 06C       0.068700
      3 HA          -0.3520     0.9070    -0.5240 h1         1 06C       0.068700
      4 HB          -0.3520    -0.9070    -0.5240 h1         1 06C       0.068700
      5 I1           2.0620     0.0000     0.0020 i          1 06C      -0.242900
@<TRIPOS>BOND
     1     1     2 1   
     2     1     3 1   
     3     1     4 1   
     4     1     5 1   
@<TRIPOS>SUBSTRUCTURE
     1 06C         1 TEMP              0 ****  ****    0 ROOT
