@<TRIPOS>MOLECULE
06F
   74    78     1     0     0
SMALL
bcc


@<TRIPOS>ATOM
      1 CAA         -0.9090     1.4440     1.1210 c3         1 06F      -0.056800
      2 CAB          7.7340    -2.4650     4.3740 c3         1 06F      -0.085100
      3 CAC          7.2720    -0.7650     6.1350 c3         1 06F      -0.085100
      4 CAD          5.7030    -2.6580     5.7900 c3         1 06F      -0.085100
      5 OAF          7.7680     1.3300     0.9570 o          1 06F      -0.592100
      6 CAG          8.5310     5.0320    -2.5670 ca         1 06F      -0.083000
      7 CAH          7.5160     4.5630    -1.7440 ca         1 06F      -0.204000
      8 CAI          9.6730     4.2780    -2.8110 ca         1 06F      -0.178000
      9 CAJ          1.4640     0.8410     0.6130 ca         1 06F      -0.123000
     10 CAK          0.7500     0.9110     2.9140 ca         1 06F      -0.123000
     11 CAL         12.6160     3.9380    -2.0660 ca         1 06F      -0.190000
     12 CAM          2.7440     0.4690     1.0100 ca         1 06F      -0.129500
     13 CAN          2.0260     0.5480     3.3330 ca         1 06F      -0.129500
     14 CAO         13.9460     4.3240    -2.1160 ca         1 06F      -0.062000
     15 CAP          8.7850     2.5190    -1.3770 ca         1 06F      -0.192000
     16 CAQ         13.2650     1.7470    -2.8780 ca         1 06F      -0.196000
     17 CAR          6.5580     0.1960     3.2880 cc         1 06F      -0.269300
     18 CAS         17.0280     2.6920    -4.6440 c3         1 06F      -0.068400
     19 CAT         16.9890     1.5400    -3.6610 c3         1 06F      -0.083400
     20 CAU         17.0110     4.0340    -3.9450 c3         1 06F      -0.175400
     21 CAV         15.5790     1.0910    -3.3470 c3         1 06F      -0.042100
     22 NAW          4.5970    -0.9180     3.7830 nd         1 06F      -0.495800
     23 NAX          6.5460     2.8030    -0.3820 ns         1 06F      -0.460100
     24 NAZ         10.9160     2.1840    -2.5010 nu         1 06F      -0.629000
     25 CBA         16.3290     3.9860    -2.6040 c          1 06F       0.588700
     26 CBB          6.7000     1.9310     0.7180 c          1 06F       0.767100
     27 CBC          0.4550     1.0670     1.5560 ca         1 06F      -0.073300
     28 CBD          7.6310     3.2860    -1.1440 ca         1 06F       0.087600
     29 CBE          9.8170     3.0110    -2.2090 ca         1 06F       0.167600
     30 CBF         12.2450     2.6350    -2.4680 ca         1 06F       0.176600
     31 CBG          3.0420     0.3310     2.3820 ca         1 06F       0.005800
     32 CBH         14.6080     2.1440    -2.9300 ca         1 06F      -0.001300
     33 CBI          5.5330     0.7190     2.4800 cd         1 06F       0.020300
     34 CBJ          5.9190    -0.8350     4.0860 cc         1 06F       0.334600
     35 CBK         14.9480     3.4520    -2.5650 ca         1 06F      -0.189600
     36 NBL          4.3570    -0.0500     2.7790 na         1 06F       0.126300
     37 HAA         -1.5360     0.5240     0.9980 hc         1 06F       0.048033
     38 HAAA        -1.4020     2.1030     1.8780 hc         1 06F       0.048033
     39 HAAB        -0.8850     1.9840     0.1430 hc         1 06F       0.048033
     40 HAB          7.2840    -3.1570     3.6220 hc         1 06F       0.039256
     41 HABA         8.3140    -3.0660     5.1130 hc         1 06F       0.039256
     42 HABB         8.4300    -1.7680     3.8480 hc         1 06F       0.039256
     43 HAC          6.4830    -0.1990     6.6840 hc         1 06F       0.039256
     44 HACA         7.9620    -0.0360     5.6450 hc         1 06F       0.039256
     45 HACB         7.8530    -1.3740     6.8680 hc         1 06F       0.039256
     46 HAD          5.2340    -3.3490     5.0500 hc         1 06F       0.039256
     47 HADA         6.2790    -3.2640     6.5290 hc         1 06F       0.039256
     48 HADB         4.8960    -2.1090     6.3300 hc         1 06F       0.039256
     49 HAG          8.4280     6.0220    -3.0380 ha         1 06F       0.136000
     50 HAH          6.6270     5.1880    -1.5730 ha         1 06F       0.131000
     51 HAI         10.4540     4.6680    -3.4810 ha         1 06F       0.148000
     52 HAJ          1.2410     0.9470    -0.4600 ha         1 06F       0.139000
     53 HAK         -0.0380     1.0770     3.6650 ha         1 06F       0.139000
     54 HAL         11.8600     4.6450    -1.6930 ha         1 06F       0.148000
     55 HAM          3.5060     0.2560     0.2450 ha         1 06F       0.150000
     56 HAN          2.2310     0.4230     4.4090 ha         1 06F       0.150000
     57 HAO         14.2290     5.3360    -1.7840 ha         1 06F       0.143000
     58 HAP          8.8890     1.5280    -0.9030 ha         1 06F       0.171000
     59 HAQ         13.0110     0.7150    -3.1680 ha         1 06F       0.136000
     60 HAR          7.6040     0.4840     3.2880 ha         1 06F       0.189000
     61 HAS         17.9590     2.6230    -5.2670 hc         1 06F       0.047200
     62 HASA        16.1570     2.6150    -5.3470 hc         1 06F       0.047200
     63 HAT         17.5230     1.8230    -2.7150 hc         1 06F       0.050700
     64 HATA        17.5410     0.6640    -4.0950 hc         1 06F       0.050700
     65 HAU         16.4770     4.7920    -4.5790 hc         1 06F       0.067700
     66 HAUA        18.0630     4.4000    -3.7960 hc         1 06F       0.067700
     67 HAV         15.1620     0.5730    -4.2560 hc         1 06F       0.055200
     68 HAVA        15.6250     0.3230    -2.5250 hc         1 06F       0.055200
     69 HNAX         5.7510     3.4060    -0.3820 hn         1 06F       0.309500
     70 HNAY         4.6840     2.1040     1.2460 hn         1 06F       0.316500
     71 HNAZ        10.8010     1.2290    -2.2290 hn         1 06F       0.426800
     72 CBM          6.6390    -1.6800     5.0910 c3         1 06F      -0.076300
     73 NAY          5.5710     1.7730     1.5650 ns         1 06F      -0.439100
     74 OAE         16.8810     4.4380    -1.5950 o          1 06F      -0.530100
@<TRIPOS>BOND
     1     1    27 1   
     2     1    37 1   
     3     1    38 1   
     4     1    39 1   
     5     2    40 1   
     6     2    41 1   
     7     2    42 1   
     8     2    72 1   
     9     3    43 1   
    10     3    44 1   
    11     3    45 1   
    12     3    72 1   
    13     4    46 1   
    14     4    47 1   
    15     4    48 1   
    16     4    72 1   
    17     5    26 2   
    18     6     7 ar  
    19     6     8 ar  
    20     6    49 1   
    21     7    28 ar  
    22     7    50 1   
    23     8    29 ar  
    24     8    51 1   
    25     9    12 ar  
    26     9    27 ar  
    27     9    52 1   
    28    10    13 ar  
    29    10    27 ar  
    30    10    53 1   
    31    11    14 ar  
    32    11    30 ar  
    33    11    54 1   
    34    12    31 ar  
    35    12    55 1   
    36    13    31 ar  
    37    13    56 1   
    38    14    35 ar  
    39    14    57 1   
    40    15    28 ar  
    41    15    29 ar  
    42    15    58 1   
    43    16    30 ar  
    44    16    32 ar  
    45    16    59 1   
    46    17    33 2   
    47    17    34 1   
    48    17    60 1   
    49    18    19 1   
    50    18    20 1   
    51    18    61 1   
    52    18    62 1   
    53    19    21 1   
    54    19    63 1   
    55    19    64 1   
    56    20    25 1   
    57    20    65 1   
    58    20    66 1   
    59    21    32 1   
    60    21    67 1   
    61    21    68 1   
    62    22    34 2   
    63    22    36 1   
    64    23    26 1   
    65    23    28 1   
    66    23    69 1   
    67    24    29 1   
    68    24    30 1   
    69    24    71 1   
    70    25    35 1   
    71    25    74 2   
    72    26    73 1   
    73    31    36 1   
    74    32    35 ar  
    75    33    36 1   
    76    33    73 1   
    77    34    72 1   
    78    70    73 1   
@<TRIPOS>SUBSTRUCTURE
     1 06F         1 TEMP              0 ****  ****    0 ROOT
