@<TRIPOS>MOLECULE
06F
   74    78     1     0     0
SMALL
bcc


@<TRIPOS>ATOM
      1 CAA          0.0000     0.0000     0.0000 c3         1 06F       0.063200
      2 CAB          8.6610    -2.0440     4.1720 c3         1 06F       0.007567
      3 CAC          9.4560     0.2300     3.5100 c3         1 06F       0.007567
      4 CAD          8.7900    -1.4200     1.7560 c3         1 06F       0.007567
      5 OAF          5.8780     1.8500     6.2040 o          1 06F      -0.678100
      6 CAG          3.9220     5.1630     9.4330 ca         1 06F      -0.059000
      7 CAH          3.5730     4.6390     8.2040 ca         1 06F      -0.122000
      8 CAI          4.7790     4.4690    10.2650 ca         1 06F      -0.137000
      9 CAJ          2.5030     0.0000     0.0000 ca         1 06F      -0.082500
     10 CAK          1.3540     0.0010     2.1040 ca         1 06F      -0.082500
     11 CAL          5.0000     2.8860    12.5170 ca         1 06F      -0.291000
     12 CAM          3.7170     0.0000     0.6590 ca         1 06F      -0.109500
     13 CAN          2.5660     0.0020     2.7680 ca         1 06F      -0.109500
     14 CAO          4.9570     3.0020    13.8780 ca         1 06F       0.028000
     15 CAP          4.9410     2.7100     8.6340 ca         1 06F      -0.141000
     16 CAQ          7.3920     2.5460    12.6060 ca         1 06F      -0.258000
     17 CAR          6.5340     0.4100     4.2310 cc         1 06F      -0.331300
     18 CAS          8.3120     4.0080    16.7530 c3         1 06F      -0.015400
     19 CAT          9.0000     3.8110    15.4110 c3         1 06F      -0.026400
     20 CAU          6.8300     4.2690    16.6550 c3         1 06F      -0.120400
     21 CAV          8.6210     2.4770    14.7800 c3         1 06F       0.016900
     22 NAW          6.1400    -0.6270     2.3350 nd         1 06F      -0.651800
     23 NAX          3.8680     2.7330     6.5370 ns         1 06F      -0.067100
     24 NAZ          6.1570     2.5370    10.7110 nu         1 06F      -0.016000
     25 CBA          6.1250     3.0590    16.0770 c          1 06F       0.649700
     26 CBB          4.7350     1.9950     5.8160 c          1 06F       0.576100
     27 CBC          1.3230     0.0010     0.7210 ca         1 06F      -0.089300
     28 CBD          4.0820     3.4100     7.8010 ca         1 06F      -0.048400
     29 CBE          5.2910     3.2400     9.8690 ca         1 06F      -0.024400
     30 CBF          6.2140     2.6670    11.8690 ca         1 06F       0.038600
     31 CBG          3.7520     0.0010     2.0470 ca         1 06F      -0.136200
     32 CBH          7.3510     2.6500    13.9650 ca         1 06F       0.031700
     33 CBI          5.2330     0.6560     3.9190 cd         1 06F      -0.235700
     34 CBJ          7.0730    -0.3940     3.2220 cc         1 06F       0.390600
     35 CBK          6.1410     2.8940    14.6180 ca         1 06F      -0.273600
     36 NBL          4.9680     0.0200     2.7440 na         1 06F       0.582300
     37 HAA          0.0120    -0.7550    -0.7760 hc         1 06F       0.010367
     38 HAAA        -0.1690     0.9730    -0.4460 hc         1 06F       0.010367
     39 HAAB        -0.7950    -0.2180     0.7030 hc         1 06F       0.010367
     40 HAB          9.6570    -2.4610     4.0800 hc         1 06F       0.007811
     41 HABA         8.5260    -1.6500     5.1720 hc         1 06F       0.007811
     42 HABB         7.9270    -2.8190     3.9870 hc         1 06F       0.007811
     43 HAC         10.4710    -0.0830     3.2970 hc         1 06F       0.007811
     44 HACA         9.3650     0.4670     4.5630 hc         1 06F       0.007811
     45 HACB         9.2180     1.1070     2.9200 hc         1 06F       0.007811
     46 HAD          8.1340    -2.2510     1.5280 hc         1 06F       0.007811
     47 HADA         9.8170    -1.7640     1.7690 hc         1 06F       0.007811
     48 HADB         8.6760    -0.6520     1.0000 hc         1 06F       0.007811
     49 HAG          3.5240     6.1210     9.7450 ha         1 06F       0.108000
     50 HAH          2.9010     5.1870     7.5530 ha         1 06F       0.107000
     51 HAI          5.0510     4.8830    11.2280 ha         1 06F       0.133000
     52 HAJ          2.4750    -0.0010    -1.0830 ha         1 06F       0.110500
     53 HAK          0.4290     0.0020     2.6660 ha         1 06F       0.110500
     54 HAL          4.0880     2.9790    11.9390 ha         1 06F       0.131000
     55 HAM          4.6410    -0.0010     0.0930 ha         1 06F       0.120000
     56 HAN          2.5900     0.0020     3.8510 ha         1 06F       0.120000
     57 HAO          4.0130     3.1720    14.3810 ha         1 06F       0.101000
     58 HAP          5.3390     1.7520     8.3220 ha         1 06F       0.150000
     59 HAQ          8.3340     2.3760    12.1000 ha         1 06F       0.119000
     60 HAR          7.0600     0.7730     5.1060 ha         1 06F       0.192000
     61 HAS          8.7750     4.8480    17.2560 hc         1 06F       0.016200
     62 HASA         8.4630     3.1160    17.3500 hc         1 06F       0.016200
     63 HAT          8.7060     4.6130    14.7430 hc         1 06F       0.018200
     64 HATA        10.0730     3.8400    15.5570 hc         1 06F       0.018200
     65 HAU          6.4430     4.4540    17.6500 hc         1 06F       0.033700
     66 HAUA         6.6700     5.1120    15.9930 hc         1 06F       0.033700
     67 HAV          9.4230     2.1450    14.1320 hc         1 06F       0.024700
     68 HAVA         8.4520     1.7450    15.5600 hc         1 06F       0.024700
     69 HNAX         2.9410     2.8910     6.1950 hn         1 06F       0.143500
     70 HNAY         3.4100     1.5830     4.3190 hn         1 06F       0.171500
     71 HNAZ         6.8920     1.9810    10.3220 hn         1 06F       0.260800
     72 CBM          8.4890    -0.9050     3.1650 c3         1 06F      -0.081300
     73 NAY          4.3350     1.4190     4.6650 ns         1 06F      -0.018100
     74 OAE          5.5660     2.2550    16.7950 o          1 06F      -0.558100
@<TRIPOS>BOND
     1     1    27 1   
     2     1    37 1   
     3     1    38 1   
     4     1    39 1   
     5     2    40 1   
     6     2    41 1   
     7     2    42 1   
     8     2    72 1   
     9     3    43 1   
    10     3    44 1   
    11     3    45 1   
    12     3    72 1   
    13     4    46 1   
    14     4    47 1   
    15     4    48 1   
    16     4    72 1   
    17     5    26 2   
    18     6     7 ar  
    19     6     8 ar  
    20     6    49 1   
    21     7    28 ar  
    22     7    50 1   
    23     8    29 ar  
    24     8    51 1   
    25     9    12 ar  
    26     9    27 ar  
    27     9    52 1   
    28    10    13 ar  
    29    10    27 ar  
    30    10    53 1   
    31    11    14 ar  
    32    11    30 ar  
    33    11    54 1   
    34    12    31 ar  
    35    12    55 1   
    36    13    31 ar  
    37    13    56 1   
    38    14    35 ar  
    39    14    57 1   
    40    15    28 ar  
    41    15    29 ar  
    42    15    58 1   
    43    16    30 ar  
    44    16    32 ar  
    45    16    59 1   
    46    17    33 2   
    47    17    34 1   
    48    17    60 1   
    49    18    19 1   
    50    18    20 1   
    51    18    61 1   
    52    18    62 1   
    53    19    21 1   
    54    19    63 1   
    55    19    64 1   
    56    20    25 1   
    57    20    65 1   
    58    20    66 1   
    59    21    32 1   
    60    21    67 1   
    61    21    68 1   
    62    22    34 2   
    63    22    36 1   
    64    23    26 1   
    65    23    28 1   
    66    23    69 1   
    67    24    29 1   
    68    24    30 1   
    69    24    71 1   
    70    25    35 1   
    71    25    74 2   
    72    26    73 1   
    73    31    36 1   
    74    32    35 ar  
    75    33    36 1   
    76    33    73 1   
    77    34    72 1   
    78    70    73 1   
@<TRIPOS>SUBSTRUCTURE
     1 06F         1 TEMP              0 ****  ****    0 ROOT
