@<TRIPOS>MOLECULE
molecule
   30    32     1     0     0
SMALL
bcc


@<TRIPOS>ATOM
      1 FAA          0.0000     0.0000     0.0000 f          1 06R      -0.220633
      2 CAB          1.3980     0.0000     0.0000 c3         1 06R       0.673200
      3 FAC          1.8650     0.0000     1.3190 f          1 06R      -0.220633
      4 FAD          1.8650    -1.1420    -0.6600 f          1 06R      -0.220633
      5 CAE          1.9000     1.2300    -0.7110 ca         1 06R      -0.162300
      6 CAF          2.1300     2.3930     0.0030 ca         1 06R      -0.085500
      7 CAG          2.5910     3.5220    -0.6410 ca         1 06R      -0.097500
      8 CAH          2.8250     3.4900    -2.0170 ca         1 06R      -0.117900
      9 CAI          2.5910     2.3140    -2.7320 ca         1 06R      -0.097500
     10 CAJ          2.1360     1.1900    -2.0740 ca         1 06R      -0.085500
     11 CAK          3.3170     4.6980    -2.7140 cc         1 06R       0.546500
     12 NAL          3.5250     5.7820    -2.0130 nd         1 06R      -0.641100
     13 CAM          3.9740     6.9190    -2.5810 ca         1 06R       0.194400
     14 CAN          4.1950     8.0750    -1.8280 ca         1 06R      -0.119000
     15 CAO          4.6530     9.2150    -2.4480 ca         1 06R      -0.092000
     16 CAP          4.9000     9.2320    -3.8140 ca         1 06R      -0.150000
     17 CAQ          4.6900     8.1050    -4.5790 ca         1 06R      -0.052000
     18 CAR          4.2260     6.9400    -3.9720 ca         1 06R      -0.203600
     19 CAS          3.9850     5.7090    -4.7400 c          1 06R       0.709100
     20 OAT          4.1850     5.6650    -5.9410 o          1 06R      -0.620500
     21 NAU          3.5400     4.6260    -4.0620 ns         1 06R      -0.471400
     22 HAF          1.9490     2.4160     1.0710 ha         1 06R       0.154500
     23 HAG          2.7710     4.4320    -0.0800 ha         1 06R       0.153500
     24 HAI          2.7730     2.2820    -3.7990 ha         1 06R       0.153500
     25 HAJ          1.9540     0.2770    -2.6270 ha         1 06R       0.154500
     26 HAN          4.0060     8.0740    -0.7610 ha         1 06R       0.149000
     27 HAO          4.8240    10.1100    -1.8630 ha         1 06R       0.136000
     28 HAP          5.2610    10.1390    -4.2830 ha         1 06R       0.138000
     29 HAQ          4.8850     8.1250    -5.6440 ha         1 06R       0.156000
     30 HNAU         3.3730     3.7680    -4.5500 hn         1 06R       0.339500
@<TRIPOS>BOND
     1     1     2 1
     2     2     3 1
     3     2     4 1
     4     2     5 1
     5     5     6 ar
     6     5    10 ar
     7     6     7 ar
     8     7     8 ar
     9     8     9 ar
    10     8    11 1
    11     9    10 ar
    12    11    12 2
    13    11    21 1
    14    12    13 1
    15    13    14 ar
    16    13    18 ar
    17    14    15 ar
    18    15    16 ar
    19    16    17 ar
    20    17    18 ar
    21    18    19 1
    22    19    20 2
    23    19    21 1
    24     6    22 1
    25     7    23 1
    26     9    24 1
    27    10    25 1
    28    14    26 1
    29    15    27 1
    30    16    28 1
    31    17    29 1
    32    21    30 1
@<TRIPOS>SUBSTRUCTURE
     1 06R         1 TEMP              0 ****  ****    0 ROOT
