@<TRIPOS>MOLECULE
06R
   30    32     1     0     0
SMALL
bcc


@<TRIPOS>ATOM
      1 FAA          0.0700     0.1130     0.2640 f          1 06R      -0.233633
      2 CAB          1.4290     0.0690     0.0630 c3         1 06R       0.686200
      3 FAC          1.9510    -0.0650     1.3260 f          1 06R      -0.233633
      4 FAD          1.6430    -1.1540    -0.5230 f          1 06R      -0.233633
      5 CAE          1.9780     1.2540    -0.7260 ca         1 06R      -0.151300
      6 CAF          2.0600     1.1810    -2.1170 ca         1 06R      -0.086000
      7 CAG          2.5440     2.2720    -2.8400 ca         1 06R      -0.101000
      8 CAH          2.9400     3.4320    -2.1650 ca         1 06R      -0.115900
      9 CAI          2.8650     3.4980    -0.7680 ca         1 06R      -0.101000
     10 CAJ          2.3830     2.4060    -0.0480 ca         1 06R      -0.086000
     11 CAK          3.4570     4.5950    -2.9400 cc         1 06R       0.532500
     12 NAL          4.3660     4.3930    -3.8770 nd         1 06R      -0.607100
     13 CAM          4.8380     5.5040    -4.5890 ca         1 06R       0.176400
     14 CAN          5.8170     5.3320    -5.6000 ca         1 06R      -0.119000
     15 CAO          6.2840     6.4310    -6.3030 ca         1 06R      -0.095000
     16 CAP          5.8040     7.7200    -6.0340 ca         1 06R      -0.148000
     17 CAQ          4.8470     7.9130    -5.0490 ca         1 06R      -0.060000
     18 CAR          4.3620     6.8160    -4.3260 ca         1 06R      -0.185600
     19 CAS          3.3430     7.0090    -3.2770 c          1 06R       0.709100
     20 OAT          2.8440     8.1000    -2.9520 o          1 06R      -0.618500
     21 NAU          2.9230     5.8470    -2.6070 ns         1 06R      -0.494400
     22 HAF          1.7500     0.2630    -2.6410 ha         1 06R       0.158500
     23 HAG          2.6190     2.2140    -3.9370 ha         1 06R       0.157000
     24 HAI          3.1990     4.3970    -0.2280 ha         1 06R       0.157000
     25 HAJ          2.3270     2.4460     1.0520 ha         1 06R       0.158500
     26 HAN          6.2020     4.3240    -5.8200 ha         1 06R       0.154000
     27 HAO          7.0450     6.2900    -7.0870 ha         1 06R       0.139000
     28 HAP          6.1900     8.5780    -6.6050 ha         1 06R       0.142000
     29 HAQ          4.4560     8.9180    -4.8200 ha         1 06R       0.160000
     30 HNAU         2.2270     5.9180    -1.8990 hn         1 06R       0.339500
@<TRIPOS>BOND
     1     1     2 1   
     2     2     3 1   
     3     2     4 1   
     4     2     5 1   
     5     5     6 ar  
     6     5    10 ar  
     7     6     7 ar  
     8     6    22 1   
     9     7     8 ar  
    10     7    23 1   
    11     8     9 ar  
    12     8    11 1   
    13     9    10 ar  
    14     9    24 1   
    15    10    25 1   
    16    11    12 2   
    17    11    21 1   
    18    12    13 1   
    19    13    14 ar  
    20    13    18 ar  
    21    14    15 ar  
    22    14    26 1   
    23    15    16 ar  
    24    15    27 1   
    25    16    17 ar  
    26    16    28 1   
    27    17    18 ar  
    28    17    29 1   
    29    18    19 1   
    30    19    20 2   
    31    19    21 1   
    32    21    30 1   
@<TRIPOS>SUBSTRUCTURE
     1 06R         1 TEMP              0 ****  ****    0 ROOT
