@<TRIPOS>MOLECULE
molecule
   51    53     1     0     0
SMALL
bcc


@<TRIPOS>ATOM
      1 N1           0.0000     0.0000     0.0000 nb         1 06U      -0.839000
      2 C2           1.3250     0.0000     0.0000 ca         1 06U       0.976900
      3 N3           2.0270     0.0000     1.1240 nb         1 06U      -0.807000
      4 C4           1.4280    -0.0000     2.3030 ca         1 06U       0.537600
      5 C5           0.0330     0.0000     2.3570 ca         1 06U      -0.317600
      6 C6          -0.6790     0.0010     1.1410 ca         1 06U       0.768200
      7 CAA         -7.8000     1.9230     5.2710 ca         1 06U      -0.277300
      8 NAH          1.9950    -0.0000    -1.2090 nv         1 06U      -1.027500
      9 CAI          2.2410    -0.0010     3.5720 c3         1 06U      -0.134700
     10 NAJ         -2.0630     0.0010     1.1370 nv         1 06U      -1.006500
     11 CAK         -0.6540     0.0010     3.6120 cg         1 06U      -0.095000
     12 CAL         -1.2040    -0.0110     4.6500 c1         1 06U      -0.162100
     13 CAM         -2.0200     0.3430     5.9910 c3         1 06U       0.096700
     14 CAN         -1.4980    -0.7560     7.1220 c3         1 06U      -0.077100
     15 CAO         -3.4230     0.0030     5.6440 ca         1 06U      -0.043300
     16 CAP         -4.0540    -1.2040     5.2370 ca         1 06U      -0.128000
     17 CAQ         -5.2980    -1.2220     4.9970 ca         1 06U       0.081100
     18 CAR         -6.2390     0.1370     5.1420 ca         1 06U      -0.199000
     19 CAS         -5.6480     1.2590     5.5210 cp         1 06U       0.000000
     20 CAT         -4.4090     1.2450     5.7530 ca         1 06U      -0.157000
     21 CAU         -6.6050     2.1670     5.5560 cp         1 06U      -0.017000
     22 CAV         -6.1950     3.5570     5.9640 ca         1 06U      -0.277300
     23 CAW         -7.1610     4.5800     6.0250 ca         1 06U       0.507700
     24 NAX         -8.3310     4.1680     5.7050 nb         1 06U      -0.793000
     25 CAY         -8.8980     3.1600     5.3570 ca         1 06U       0.507700
     26 CAZ          2.5170     1.4410     4.0020 c3         1 06U      -0.084100
     27 OBA         -5.8690    -2.4800     4.8160 os         1 06U      -0.275900
     28 CBB         -7.0320    -2.3350     4.4160 c3         1 06U       0.142700
     29 HNAH         2.7060     0.6810    -1.3880 hn         1 06U       0.447300
     30 HNAA         1.7760    -0.6890    -1.9030 hn         1 06U       0.447300
     31 HAI          1.6430    -0.3980     4.3840 hc         1 06U       0.063700
     32 HAIA         3.1210    -0.6180     3.4370 hc         1 06U       0.063700
     33 HNAJ        -2.5610    -0.4160     0.3760 hn         1 06U       0.446800
     34 HNAB        -2.5650     0.4250     1.8920 hn         1 06U       0.446800
     35 HAM         -1.8950     1.3730     6.3050 hc         1 06U       0.091700
     36 HAN         -1.3330    -1.7140     6.6450 hc         1 06U       0.044700
     37 HANA        -0.5720    -0.4080     7.5630 hc         1 06U       0.044700
     38 HANB        -2.2490    -0.8620     7.8960 hc         1 06U       0.044700
     39 HAP         -3.4440    -2.0490     4.9430 ha         1 06U       0.156000
     40 HAR         -7.3040     0.1050     4.9450 ha         1 06U       0.170000
     41 HAT         -3.9740     2.2120     5.9750 ha         1 06U       0.117000
     42 HAV         -5.1850     3.7340     6.3150 ha         1 06U       0.140500
     43 HAW         -6.8220     5.6020     6.1500 h4         1 06U       0.038100
     44 HAY         -9.8960     3.0400     4.9520 h4         1 06U       0.038100
     45 HAZ          1.6280     2.0400     3.8480 hc         1 06U       0.039367
     46 HAZA         2.7870     1.4590     5.0510 hc         1 06U       0.039367
     47 HAZB         3.3310     1.8440     3.4120 hc         1 06U       0.039367
     48 HBB         -7.6710    -2.0710     5.2500 h1         1 06U       0.014033
     49 HBBA        -7.0640    -1.5470     3.6730 h1         1 06U       0.014033
     50 HBBB        -7.3800    -3.2620     3.9740 h1         1 06U       0.014033
     51 HAA         -8.0680     0.9860     4.7980 ha         1 06U       0.140500
@<TRIPOS>BOND
     1     2     1 ar
     2     1     6 ar
     3     3     2 ar
     4     8     2 1
     5     3     4 ar
     6     9     4 1
     7     4     5 ar
     8     5    11 1
     9     5     6 ar
    10     6    10 1
    11    25     7 ar
    12     7    21 ar
    13     7    51 1
    14     8    29 1
    15     8    30 1
    16    26     9 1
    17     9    31 1
    18     9    32 1
    19    10    33 1
    20    10    34 1
    21    11    12 3
    22    12    13 1
    23    15    13 1
    24    13    14 1
    25    13    35 1
    26    14    36 1
    27    14    37 1
    28    14    38 1
    29    16    15 ar
    30    20    15 ar
    31    17    16 ar
    32    16    39 1
    33    27    17 1
    34    18    17 ar
    35    18    19 ar
    36    18    40 1
    37    21    19 1
    38    19    20 ar
    39    20    41 1
    40    21    22 ar
    41    23    22 ar
    42    22    42 1
    43    24    23 ar
    44    23    43 1
    45    25    24 ar
    46    25    44 1
    47    26    45 1
    48    26    46 1
    49    26    47 1
    50    27    28 1
    51    28    48 1
    52    28    49 1
    53    28    50 1
@<TRIPOS>SUBSTRUCTURE
     1 06U         1 TEMP              0 ****  ****    0 ROOT
