@<TRIPOS>MOLECULE
06U
   51    53     1     0     0
SMALL
bcc


@<TRIPOS>ATOM
      1 N1          -0.2290     0.1950    -0.1050 nb         1 06U      -0.830000
      2 C2           1.1110     0.5290    -0.1640 ca         1 06U       0.915900
      3 N3           1.9820     0.5750     0.9200 nb         1 06U      -0.790000
      4 C4           1.4560     0.3190     2.1330 ca         1 06U       0.538600
      5 C5           0.0880    -0.0070     2.3210 ca         1 06U      -0.336600
      6 C6          -0.7360    -0.0790     1.1370 ca         1 06U       0.742200
      7 CAA          1.5310     3.2070     9.5300 ca         1 06U      -0.237300
      8 NAH          1.6190     0.9050    -1.4090 nv         1 06U      -0.931500
      9 CAI          2.3760     0.3800     3.3240 c3         1 06U      -0.140700
     10 NAJ         -2.0530    -0.4820     1.2370 nv         1 06U      -0.953500
     11 CAK         -0.4560    -0.2570     3.5830 cg         1 06U      -0.079000
     12 CAL         -0.9330    -0.4700     4.6630 c1         1 06U      -0.156100
     13 CAM         -1.5070    -0.7540     5.9520 c3         1 06U       0.069700
     14 CAN         -2.8290    -0.0190     6.1380 c3         1 06U      -0.086100
     15 CAO         -0.5600    -0.4070     7.0680 ca         1 06U      -0.042300
     16 CAP         -0.2500    -1.3730     8.0320 ca         1 06U      -0.191000
     17 CAQ          0.6110    -1.0370     9.0820 ca         1 06U       0.123100
     18 CAR          1.1670     0.2500     9.1810 ca         1 06U      -0.140000
     19 CAS          0.8550     1.2040     8.2100 cp         1 06U      -0.018000
     20 CAT         -0.0070     0.8720     7.1540 ca         1 06U      -0.135000
     21 CAU          1.4260     2.5480     8.2960 cp         1 06U       0.001000
     22 CAV          1.8810     3.2140     7.1480 ca         1 06U      -0.237300
     23 CAW          2.4180     4.5060     7.2870 ca         1 06U       0.392200
     24 NAX          2.5210     5.1500     8.4650 nb         1 06U      -0.663000
     25 CAY          2.0820     4.5000     9.5600 ca         1 06U       0.392200
     26 CAZ          2.7640     1.8020     3.6480 c3         1 06U      -0.089100
     27 OBA          0.9860    -1.9040    10.0920 os         1 06U      -0.326900
     28 CBB          0.4820    -3.2310    10.0010 c3         1 06U       0.112700
     29 HNAH         1.0900     0.6530    -2.2100 hn         1 06U       0.430800
     30 HNAA         2.6060     0.9190    -1.5070 hn         1 06U       0.430800
     31 HAI          3.3000    -0.2230     3.1130 hc         1 06U       0.065700
     32 HAIA         1.8660    -0.0860     4.2090 hc         1 06U       0.065700
     33 HNAJ        -2.6530    -0.3820     0.4550 hn         1 06U       0.434800
     34 HNAB        -2.4590    -0.4770     2.1410 hn         1 06U       0.434800
     35 HAM         -1.7190    -1.8670     5.9930 hc         1 06U       0.066700
     36 HAN         -3.5390    -0.2950     5.3220 hc         1 06U       0.042700
     37 HANA        -2.6710     1.0850     6.1190 hc         1 06U       0.042700
     38 HANB        -3.2810    -0.2990     7.1200 hc         1 06U       0.042700
     39 HAP         -0.6820    -2.3810     7.9560 ha         1 06U       0.140000
     40 HAR          1.8450     0.4850    10.0140 ha         1 06U       0.154000
     41 HAT         -0.2530     1.6240     6.3890 ha         1 06U       0.145000
     42 HAV          1.8310     2.7350     6.1590 ha         1 06U       0.149000
     43 HAW          2.7870     5.0580     6.4040 h4         1 06U       0.022600
     44 HAY          2.1770     5.0480    10.5140 h4         1 06U       0.022600
     45 HAZ          3.3330     2.2610     2.8030 hc         1 06U       0.040700
     46 HAZA         3.4080     1.8180     4.5610 hc         1 06U       0.040700
     47 HAZB         1.8580     2.4250     3.8430 hc         1 06U       0.040700
     48 HBB          0.8230    -3.7200     9.0560 h1         1 06U       0.045367
     49 HBBA         0.9300    -3.7400    10.8920 h1         1 06U       0.045367
     50 HBBB        -0.6330    -3.2350    10.0640 h1         1 06U       0.045367
     51 HAA          1.1850     2.7270    10.4550 ha         1 06U       0.149000
@<TRIPOS>BOND
     1     1     2 ar  
     2     1     6 ar  
     3     2     3 ar  
     4     2     8 1   
     5     3     4 ar  
     6     4     5 ar  
     7     4     9 1   
     8     5     6 ar  
     9     5    11 1   
    10     6    10 1   
    11     7    21 ar  
    12     7    25 ar  
    13     7    51 1   
    14     8    29 1   
    15     8    30 1   
    16     9    26 1   
    17     9    31 1   
    18     9    32 1   
    19    10    33 1   
    20    10    34 1   
    21    11    12 3   
    22    12    13 1   
    23    13    14 1   
    24    13    15 1   
    25    13    35 1   
    26    14    36 1   
    27    14    37 1   
    28    14    38 1   
    29    15    16 ar  
    30    15    20 ar  
    31    16    17 ar  
    32    16    39 1   
    33    17    18 ar  
    34    17    27 1   
    35    18    19 ar  
    36    18    40 1   
    37    19    20 ar  
    38    19    21 1   
    39    20    41 1   
    40    21    22 ar  
    41    22    23 ar  
    42    22    42 1   
    43    23    24 ar  
    44    23    43 1   
    45    24    25 ar  
    46    25    44 1   
    47    26    45 1   
    48    26    46 1   
    49    26    47 1   
    50    27    28 1   
    51    28    48 1   
    52    28    49 1   
    53    28    50 1   
@<TRIPOS>SUBSTRUCTURE
     1 06U         1 TEMP              0 ****  ****    0 ROOT
