@<TRIPOS>MOLECULE
06V
   55    57     1     0     0
SMALL
bcc


@<TRIPOS>ATOM
      1 N1          -0.0080     0.1560     0.2350 nb         1 06V      -0.833000
      2 C2           1.3140     0.5550     0.2750 ca         1 06V       0.916900
      3 N3           2.0640     0.7670     1.4290 nb         1 06V      -0.788000
      4 C4           1.4260     0.6110     2.6030 ca         1 06V       0.540600
      5 C5           0.0570     0.2380     2.6850 ca         1 06V      -0.346600
      6 C6          -0.6420     0.0250     1.4420 ca         1 06V       0.745200
      7 CAA          0.8760     4.0720     7.5490 c3         1 06V       0.157800
      8 NAH          1.9390     0.8100    -0.9460 nv         1 06V      -0.933500
      9 CAI          2.1760     0.8040     3.8920 c3         1 06V      -0.139700
     10 NAJ         -1.9870    -0.2860     1.4510 nv         1 06V      -0.956500
     11 CAK         -0.5910     0.0830     3.9130 cg         1 06V      -0.083000
     12 CAL         -1.1510    -0.0450     4.9660 c1         1 06V      -0.154100
     13 CAM         -1.8210    -0.2220     6.2280 c3         1 06V       0.068700
     14 CAN         -3.1430     0.5370     6.2560 c3         1 06V      -0.085100
     15 CAO         -0.9610     0.2040     7.3880 ca         1 06V      -0.013300
     16 CAP         -0.9490    -0.5830     8.5450 ca         1 06V      -0.235000
     17 CAQ         -0.1650    -0.1720     9.6240 ca         1 06V       0.154100
     18 CAR          0.5960     1.0060     9.5770 ca         1 06V      -0.218000
     19 CAS          0.5870     1.7950     8.4100 ca         1 06V       0.181600
     20 CAT         -0.2060     1.3700     7.3120 ca         1 06V      -0.195000
     21 NAU          1.4090     2.9320     8.2750 nh         1 06V      -0.644000
     22 CAV          2.2260     3.3060     9.4150 c3         1 06V       0.157800
     23 CAW          3.0300     4.5810     9.1490 c3         1 06V       0.117400
     24 OAX          2.2230     5.7070     8.8200 os         1 06V      -0.421600
     25 CAY          0.9260     5.3850     8.3380 c3         1 06V       0.117400
     26 CAZ          3.4580     1.5850     3.7750 c3         1 06V      -0.083100
     27 OBA         -0.0670    -0.8610    10.8210 os         1 06V      -0.329900
     28 CBB         -0.8030    -2.0740    10.9090 c3         1 06V       0.114700
     29 HAAA         1.5040     4.1840     6.6180 h1         1 06V       0.056950
     30 HNAH         1.5060     0.4530    -1.7640 hn         1 06V       0.430800
     31 HNAA         2.9300     0.8630    -0.9460 hn         1 06V       0.430800
     32 HAI          1.4880     1.3190     4.6190 hc         1 06V       0.066200
     33 HAIA         2.3910    -0.2190     4.3070 hc         1 06V       0.066200
     34 HNAJ        -2.3820    -0.5730     2.3130 hn         1 06V       0.435300
     35 HNAB        -2.4300    -0.5700     0.6120 hn         1 06V       0.435300
     36 HAM         -2.0500    -1.3260     6.3410 hc         1 06V       0.065700
     37 HAN         -2.9660     1.6340     6.1520 hc         1 06V       0.042367
     38 HANA        -3.6650     0.3470     7.2240 hc         1 06V       0.042367
     39 HANB        -3.7980     0.1990     5.4180 hc         1 06V       0.042367
     40 HAP         -1.5450    -1.5040     8.5900 ha         1 06V       0.137000
     41 HAR          1.1870     1.2750    10.4640 ha         1 06V       0.150000
     42 HAT         -0.2120     1.9450     6.3730 ha         1 06V       0.145000
     43 HAV          2.9450     2.4630     9.6190 h1         1 06V       0.056950
     44 HAVA         1.5990     3.4670    10.3410 h1         1 06V       0.056950
     45 HAW          3.7550     4.4270     8.3050 h1         1 06V       0.053950
     46 HAWA         3.5860     4.8780    10.0780 h1         1 06V       0.053950
     47 HAY          0.6490     6.2440     7.6700 h1         1 06V       0.053950
     48 HAYA         0.2260     5.3460     9.2150 h1         1 06V       0.053950
     49 HAZ          3.2750     2.5840     3.3120 hc         1 06V       0.040033
     50 HAZA         3.8940     1.7390     4.7930 hc         1 06V       0.040033
     51 HAZB         4.2060     1.0410     3.1490 hc         1 06V       0.040033
     52 HBB         -0.5630    -2.4510    11.9350 h1         1 06V       0.044033
     53 HBBA        -0.4620    -2.8020    10.1330 h1         1 06V       0.044033
     54 HBBB        -1.8990    -1.8800    10.8080 h1         1 06V       0.044033
     55 HAA         -0.1910     3.9000     7.2350 h1         1 06V       0.056950
@<TRIPOS>BOND
     1     1     2 ar  
     2     1     6 ar  
     3     2     3 ar  
     4     2     8 1   
     5     3     4 ar  
     6     4     5 ar  
     7     4     9 1   
     8     5     6 ar  
     9     5    11 1   
    10     6    10 1   
    11     7    21 1   
    12     7    25 1   
    13     7    29 1   
    14     7    55 1   
    15     8    30 1   
    16     8    31 1   
    17     9    26 1   
    18     9    32 1   
    19     9    33 1   
    20    10    34 1   
    21    10    35 1   
    22    11    12 3   
    23    12    13 1   
    24    13    14 1   
    25    13    15 1   
    26    13    36 1   
    27    14    37 1   
    28    14    38 1   
    29    14    39 1   
    30    15    16 ar  
    31    15    20 ar  
    32    16    17 ar  
    33    16    40 1   
    34    17    18 ar  
    35    17    27 1   
    36    18    19 ar  
    37    18    41 1   
    38    19    20 ar  
    39    19    21 1   
    40    20    42 1   
    41    21    22 1   
    42    22    23 1   
    43    22    43 1   
    44    22    44 1   
    45    23    24 1   
    46    23    45 1   
    47    23    46 1   
    48    24    25 1   
    49    25    47 1   
    50    25    48 1   
    51    26    49 1   
    52    26    50 1   
    53    26    51 1   
    54    27    28 1   
    55    28    52 1   
    56    28    53 1   
    57    28    54 1   
@<TRIPOS>SUBSTRUCTURE
     1 06V         1 TEMP              0 ****  ****    0 ROOT
