@<TRIPOS>MOLECULE
molecule
   55    57     1     0     0
SMALL
bcc


@<TRIPOS>ATOM
      1 N1           0.0000     0.0000     0.0000 nb         1 06V      -0.866000
      2 C2           1.3250     0.0000     0.0000 ca         1 06V       0.888900
      3 N3           2.0270     0.0000     1.1240 nb         1 06V      -0.846000
      4 C4           1.4280    -0.0010     2.3040 ca         1 06V       0.545600
      5 C5           0.0330    -0.0010     2.3560 ca         1 06V      -0.346600
      6 C6          -0.6790    -0.0010     1.1410 ca         1 06V       0.774200
      7 CAA         -7.0230     3.2120     6.1910 c3         1 06V       0.092300
      8 NAH          1.9960    -0.0000    -1.2100 nv         1 06V      -0.980500
      9 CAI          2.2410    -0.0020     3.5730 c3         1 06V      -0.143700
     10 NAJ         -2.0620    -0.0000     1.1370 nv         1 06V      -1.003500
     11 CAK         -0.6550    -0.0010     3.6120 cg         1 06V      -0.087000
     12 CAL         -1.2020    -0.0070     4.6510 c1         1 06V      -0.163100
     13 CAM         -1.9320     0.1660     5.8730 c3         1 06V       0.085700
     14 CAN         -1.6980    -0.9460     6.6060 c3         1 06V      -0.135100
     15 CAO         -3.2570     0.4130     5.6030 ca         1 06V      -0.017300
     16 CAP         -3.9800    -0.4420     4.8140 ca         1 06V      -0.139000
     17 CAQ         -5.3060     0.0540     4.7050 ca         1 06V       0.091100
     18 CAR         -5.8810     1.0290     5.1490 ca         1 06V      -0.135000
     19 CAS         -4.8520     1.9570     6.0840 ca         1 06V       0.028600
     20 CAT         -3.6170     1.6450     6.2830 ca         1 06V      -0.142000
     21 NAU         -5.6540     3.3440     6.7210 nh         1 06V      -0.484000
     22 CAV         -5.0000     4.2650     6.0180 c3         1 06V       0.092300
     23 CAW         -5.3550     5.6500     6.3110 c3         1 06V       0.121900
     24 OAX         -6.8520     5.6850     5.8850 os         1 06V      -0.468600
     25 CAY         -7.7160     4.5590     6.3410 c3         1 06V       0.121900
     26 CAZ          2.5160     1.4410     4.0030 c3         1 06V      -0.112100
     27 OBA         -6.3180    -1.1240     4.2310 os         1 06V      -0.437900
     28 CBB         -5.3590    -2.1780     3.4750 c3         1 06V       0.093700
     29 HAAA        -7.5370     2.3310     6.5540 h1         1 06V       0.050700
     30 HNAH         1.2820    -0.4030    -1.7840 hn         1 06V       0.495300
     31 HNAA         2.9240     0.0560    -0.8390 hn         1 06V       0.495300
     32 HAI          1.5040    -0.2330     4.3330 hc         1 06V       0.079200
     33 HAIA         3.1400    -0.5760     3.3870 hc         1 06V       0.079200
     34 HNAJ        -2.6490    -0.3470     0.4040 hn         1 06V       0.452300
     35 HNAB        -2.3900     0.3680     2.0080 hn         1 06V       0.452300
     36 HAM         -1.2440     0.8130     6.4040 hc         1 06V       0.087700
     37 HAN         -1.8630    -1.8400     6.0160 hc         1 06V       0.037367
     38 HANA        -0.6760    -1.3010     6.6520 hc         1 06V       0.037367
     39 HANB        -2.0970    -1.3900     7.5100 hc         1 06V       0.037367
     40 HAP         -3.6230    -1.4360     4.5710 ha         1 06V       0.183000
     41 HAR         -6.9150     1.2870     4.9530 ha         1 06V       0.179000
     42 HAT         -3.2910     2.3910     6.9980 ha         1 06V       0.186000
     43 HAV         -3.9800     4.2130     6.3820 h1         1 06V       0.050700
     44 HAVA        -4.7060     4.1870     4.9790 h1         1 06V       0.050700
     45 HAW         -5.2250     5.6950     7.3850 h1         1 06V       0.058450
     46 HAWA        -4.9010     6.6060     6.0790 h1         1 06V       0.058450
     47 HAY         -8.7790     4.7250     6.2090 h1         1 06V       0.058450
     48 HAYA        -7.5210     4.6810     7.4000 h1         1 06V       0.058450
     49 HAZ          3.1070     1.9350     3.2420 hc         1 06V       0.048033
     50 HAZA         1.6600     2.1040     3.9850 hc         1 06V       0.048033
     51 HAZB         3.3090     1.2780     4.7230 hc         1 06V       0.048033
     52 HBB         -6.1900    -2.6290     2.9460 h1         1 06V       0.062367
     53 HBBA        -4.6990    -1.6480     2.7990 h1         1 06V       0.062367
     54 HBBB        -5.0380    -2.6670     4.3870 h1         1 06V       0.062367
     55 HAA         -6.9590     3.2820     5.1120 h1         1 06V       0.050700
@<TRIPOS>BOND
     1     2     1 ar
     2     1     6 ar
     3     3     2 ar
     4     8     2 1
     5     3     4 ar
     6     9     4 1
     7     4     5 ar
     8     5    11 1
     9     5     6 ar
    10     6    10 1
    11    21     7 1
    12    25     7 1
    13     7    55 1
    14     7    29 1
    15     8    30 1
    16     8    31 1
    17    26     9 1
    18     9    32 1
    19     9    33 1
    20    10    34 1
    21    10    35 1
    22    12    11 3
    23    13    12 1
    24    15    13 1
    25    13    14 1
    26    13    36 1
    27    14    37 1
    28    14    38 1
    29    14    39 1
    30    16    15 ar
    31    20    15 ar
    32    17    16 ar
    33    16    40 1
    34    27    17 1
    35    18    17 ar
    36    18    19 ar
    37    18    41 1
    38    21    19 1
    39    19    20 ar
    40    20    42 1
    41    22    21 1
    42    23    22 1
    43    22    43 1
    44    22    44 1
    45    23    24 1
    46    23    45 1
    47    23    46 1
    48    24    25 1
    49    25    47 1
    50    25    48 1
    51    26    49 1
    52    26    50 1
    53    26    51 1
    54    27    28 1
    55    28    52 1
    56    28    53 1
    57    28    54 1
@<TRIPOS>SUBSTRUCTURE
     1 06V         1 TEMP              0 ****  ****    0 ROOT
