@<TRIPOS>MOLECULE
molecule
   51    53     1     0     0
SMALL
bcc


@<TRIPOS>ATOM
      1 N1           0.0000     0.0000     0.0000 nb         1 06W      -0.823000
      2 C2           1.3240     0.0000     0.0000 ca         1 06W       0.961900
      3 N3           2.0280     0.0000     1.1240 nb         1 06W      -0.808000
      4 C4           1.4280     0.0010     2.3030 ca         1 06W       0.533600
      5 C5           0.0340     0.0020     2.3560 ca         1 06W      -0.304600
      6 C6          -0.6790     0.0010     1.1410 ca         1 06W       0.781200
      7 CAA         -6.5450    -0.0690     9.6490 ca         1 06W      -0.228300
      8 NAH          1.9940    -0.0010    -1.2100 nv         1 06W      -0.987500
      9 CAI          2.2410     0.0010     3.5720 c3         1 06W      -0.133700
     10 NAJ         -2.0620     0.0020     1.1360 nv         1 06W      -1.078500
     11 CAK         -0.6540     0.0030     3.6130 cg         1 06W      -0.070000
     12 CAL         -1.2360     0.0070     4.6320 c1         1 06W      -0.128100
     13 CAM         -1.4620     0.0930     6.0420 c3         1 06W       0.052700
     14 CAN         -1.1900     1.7010     6.3530 c3         1 06W      -0.091100
     15 CAO         -2.9950     0.0910     6.4230 ca         1 06W      -0.021300
     16 CAP         -3.9220     0.9190     5.3730 ca         1 06W      -0.122000
     17 CAQ         -4.9810     0.9020     5.6620 ca         1 06W       0.136100
     18 CAR         -5.6280     0.2990     6.7520 ca         1 06W      -0.176000
     19 CAS         -4.9540    -0.3840     7.6400 cp         1 06W      -0.035000
     20 CAT         -3.4450    -0.3980     7.2900 ca         1 06W      -0.129000
     21 CAU         -5.4920    -0.5450     9.1680 cp         1 06W       0.031000
     22 CAV         -4.4830    -1.4240    10.0430 ca         1 06W      -0.228300
     23 CAW         -4.7940    -1.6290    11.2780 ca         1 06W       0.361200
     24 NAX         -6.2450    -0.9500    11.8710 nb         1 06W      -0.584000
     25 CAY         -6.7730    -0.3250    10.8920 ca         1 06W       0.361200
     26 CAZ          2.5180     1.4430     4.0010 c3         1 06W      -0.085100
     27 OBA         -6.1990     1.6600     4.8290 os         1 06W      -0.398900
     28 CBB         -7.3370     1.6630     5.4480 c3         1 06W       0.144700
     29 HNAH         1.4790    -0.0390    -2.0680 hn         1 06W       0.451300
     30 HNAA         2.9940     0.0390    -1.2290 hn         1 06W       0.451300
     31 HAI          3.1140    -0.6290     3.4430 hc         1 06W       0.062200
     32 HAIA         1.6380    -0.3820     4.3870 hc         1 06W       0.062200
     33 HNAJ        -2.5620     0.8690     1.1410 hn         1 06W       0.445800
     34 HNAB        -2.5630    -0.8640     1.1570 hn         1 06W       0.445800
     35 HAM         -0.8520    -0.5730     6.6400 hc         1 06W       0.091700
     36 HAN         -1.8060     2.0170     7.1860 hc         1 06W       0.041700
     37 HANA        -0.1450     1.8490     6.6010 hc         1 06W       0.041700
     38 HANB        -1.4390     2.2860     5.4770 hc         1 06W       0.041700
     39 HAP         -3.5760     1.8130     4.8700 ha         1 06W       0.170000
     40 HAR         -6.7100     0.3190     6.8080 ha         1 06W       0.159000
     41 HAT         -2.8360    -0.5770     8.1680 ha         1 06W       0.133000
     42 HAV         -3.5780    -1.8350     9.6120 ha         1 06W       0.150000
     43 HAW         -4.1080    -2.1350    11.9470 h4         1 06W       0.006100
     44 HAY         -7.7220     0.0990    11.1950 h4         1 06W       0.006100
     45 HAZ          1.6350     2.0460     3.8290 hc         1 06W       0.040033
     46 HAZA         3.3440     1.8390     3.4240 hc         1 06W       0.040033
     47 HAZB         2.7690     1.4640     5.0550 hc         1 06W       0.040033
     48 HBB         -7.1770     1.8810     6.4970 h1         1 06W       0.013700
     49 HBBA        -7.8050     0.6910     5.3490 h1         1 06W       0.013700
     50 HBBB        -7.9810     2.4200     5.0170 h1         1 06W       0.013700
     51 HAA         -7.2170     0.4820     9.0010 ha         1 06W       0.150000
@<TRIPOS>BOND
     1     2     1 ar
     2     6     1 ar
     3     3     2 ar
     4     2     8 1
     5     4     3 ar
     6     9     4 1
     7     4     5 ar
     8    11     5 1
     9     5     6 ar
    10     6    10 1
    11    21     7 ar
    12    25     7 ar
    13     7    51 1
    14     8    29 1
    15     8    30 1
    16     9    26 1
    17     9    31 1
    18     9    32 1
    19    10    33 1
    20    10    34 1
    21    12    11 3
    22    13    12 1
    23    14    13 1
    24    13    15 1
    25    13    35 1
    26    14    36 1
    27    14    37 1
    28    14    38 1
    29    20    15 ar
    30    15    16 ar
    31    16    17 ar
    32    16    39 1
    33    18    17 ar
    34    17    27 1
    35    19    18 ar
    36    18    40 1
    37    21    19 1
    38    20    19 ar
    39    20    41 1
    40    22    21 ar
    41    23    22 ar
    42    22    42 1
    43    23    24 ar
    44    23    43 1
    45    24    25 ar
    46    25    44 1
    47    26    45 1
    48    26    46 1
    49    26    47 1
    50    27    28 1
    51    28    48 1
    52    28    49 1
    53    28    50 1
@<TRIPOS>SUBSTRUCTURE
     1 06W         1 TEMP              0 ****  ****    0 ROOT
