@<TRIPOS>MOLECULE
06W
   51    53     1     0     0
SMALL
bcc


@<TRIPOS>ATOM
      1 N1          -0.0320     0.6500    -0.0740 nb         1 06W      -0.834000
      2 C2           0.7530    -0.4030    -0.5050 ca         1 06W       0.918900
      3 N3           1.3620    -1.3480     0.3150 nb         1 06W      -0.794000
      4 C4           1.1290    -1.2440     1.6380 ca         1 06W       0.539600
      5 C5           0.3130    -0.2270     2.1940 ca         1 06W      -0.341600
      6 C6          -0.2720     0.7210     1.2720 ca         1 06W       0.751200
      7 CAA          1.0290     6.0550     6.0060 ca         1 06W      -0.237300
      8 NAH          0.9090    -0.5580    -1.8830 nv         1 06W      -0.934500
      9 CAI          1.7700    -2.2630     2.5450 c3         1 06W      -0.138700
     10 NAJ         -1.1090     1.7080     1.7400 nv         1 06W      -0.960500
     11 CAK          0.0700    -0.1220     3.5660 cg         1 06W      -0.076000
     12 CAL         -0.1460    -0.0190     4.7410 c1         1 06W      -0.160100
     13 CAM         -0.4250     0.0780     6.1500 c3         1 06W       0.069700
     14 CAN          0.6540    -0.6190     6.9700 c3         1 06W      -0.085100
     15 CAO         -0.5680     1.5100     6.5880 ca         1 06W      -0.048300
     16 CAP         -1.6960     1.8990     7.3090 ca         1 06W      -0.145000
     17 CAQ         -1.8120     3.2370     7.7310 ca         1 06W       0.124100
     18 CAR         -0.8220     4.1760     7.4340 ca         1 06W      -0.190000
     19 CAS          0.3080     3.7730     6.7070 cp         1 06W      -0.016000
     20 CAT          0.4320     2.4440     6.2900 ca         1 06W      -0.138000
     21 CAU          1.3530     4.7440     6.3880 cp         1 06W       0.002000
     22 CAV          2.7100     4.3910     6.4530 ca         1 06W      -0.237300
     23 CAW          3.6760     5.3610     6.1380 ca         1 06W       0.392700
     24 NAX          3.3770     6.6220     5.7700 nb         1 06W      -0.662000
     25 CAY          2.0710     6.9490     5.7080 ca         1 06W       0.392700
     26 CAZ          3.2740    -2.1400     2.5530 c3         1 06W      -0.087100
     27 OBA         -2.9660     3.5170     8.4390 os         1 06W      -0.326900
     28 CBB         -3.1030     4.8490     8.9170 c3         1 06W       0.112700
     29 HNAH         1.6440    -1.1490    -2.1920 hn         1 06W       0.431300
     30 HNAA         0.6780     0.2160    -2.4590 hn         1 06W       0.431300
     31 HAI          1.4770    -3.2920     2.2020 hc         1 06W       0.062700
     32 HAIA         1.3750    -2.1310     3.5870 hc         1 06W       0.062700
     33 HNAJ        -1.4240     2.4240     1.1330 hn         1 06W       0.441800
     34 HNAB        -1.1600     1.8520     2.7180 hn         1 06W       0.441800
     35 HAM         -1.4070    -0.4560     6.3420 hc         1 06W       0.070700
     36 HAN          0.3810    -0.5940     8.0520 hc         1 06W       0.043700
     37 HANA         1.6380    -0.1090     6.8360 hc         1 06W       0.043700
     38 HANB         0.7530    -1.6820     6.6460 hc         1 06W       0.043700
     39 HAP         -2.4950     1.1860     7.5540 ha         1 06W       0.153000
     40 HAR         -0.9090     5.2200     7.7670 ha         1 06W       0.143000
     41 HAT          1.3140     2.1260     5.7130 ha         1 06W       0.146000
     42 HAV          3.0140     3.3790     6.7510 ha         1 06W       0.146000
     43 HAW          4.7530     5.1170     6.1810 h4         1 06W       0.022600
     44 HAY          1.8510     7.9880     5.4020 h4         1 06W       0.022600
     45 HAZ          3.6960    -2.3420     1.5380 hc         1 06W       0.040033
     46 HAZA         3.7080    -2.8790     3.2700 hc         1 06W       0.040033
     47 HAZB         3.5870    -1.1160     2.8680 hc         1 06W       0.040033
     48 HBB         -3.1440     5.5710     8.0650 h1         1 06W       0.045700
     49 HBBA        -4.0800     4.8290     9.4640 h1         1 06W       0.045700
     50 HBBB        -2.2680     5.1100     9.6110 h1         1 06W       0.045700
     51 HAA         -0.0180     6.3770     5.9320 ha         1 06W       0.146000
@<TRIPOS>BOND
     1     1     2 ar  
     2     1     6 ar  
     3     2     3 ar  
     4     2     8 1   
     5     3     4 ar  
     6     4     5 ar  
     7     4     9 1   
     8     5     6 ar  
     9     5    11 1   
    10     6    10 1   
    11     7    21 ar  
    12     7    25 ar  
    13     7    51 1   
    14     8    29 1   
    15     8    30 1   
    16     9    26 1   
    17     9    31 1   
    18     9    32 1   
    19    10    33 1   
    20    10    34 1   
    21    11    12 3   
    22    12    13 1   
    23    13    14 1   
    24    13    15 1   
    25    13    35 1   
    26    14    36 1   
    27    14    37 1   
    28    14    38 1   
    29    15    16 ar  
    30    15    20 ar  
    31    16    17 ar  
    32    16    39 1   
    33    17    18 ar  
    34    17    27 1   
    35    18    19 ar  
    36    18    40 1   
    37    19    20 ar  
    38    19    21 1   
    39    20    41 1   
    40    21    22 ar  
    41    22    23 ar  
    42    22    42 1   
    43    23    24 ar  
    44    23    43 1   
    45    24    25 ar  
    46    25    44 1   
    47    26    45 1   
    48    26    46 1   
    49    26    47 1   
    50    27    28 1   
    51    28    48 1   
    52    28    49 1   
    53    28    50 1   
@<TRIPOS>SUBSTRUCTURE
     1 06W         1 TEMP              0 ****  ****    0 ROOT
