@<TRIPOS>MOLECULE
06X
   54    55     1     0     0
SMALL
bcc


@<TRIPOS>ATOM
      1 ClAG        -0.4340    -0.2840    -3.5420 cl         1 06X      -0.126400
      2 CAZ          0.0690    -0.2350    -1.9090 ca         1 06X       0.035400
      3 CAJ         -0.9420    -0.3520    -0.9460 ca         1 06X      -0.127000
      4 CAH         -0.6250    -0.2960     0.4080 ca         1 06X      -0.110000
      5 CAI          0.7020    -0.1170     0.8000 ca         1 06X      -0.126000
      6 CAK          1.7020    -0.0070    -0.1600 ca         1 06X      -0.100000
      7 CBA          1.4100    -0.0740    -1.5340 ca         1 06X      -0.084300
      8 CBB          2.5760     0.0590    -2.4790 c3         1 06X       0.113000
      9 CAY          2.6540    -1.0520    -3.4860 ce         1 06X      -0.261400
     10 CAV          3.1560    -2.3380    -3.0150 c          1 06X       0.708300
     11 OAF          3.5350    -3.3120    -3.7060 o          1 06X      -0.729000
     12 OAS          3.2710    -2.4540    -1.6690 os         1 06X      -0.389900
     13 CAL          3.7740    -3.6890    -1.1260 c3         1 06X       0.137400
     14 CAA          5.2800    -3.7290    -1.1780 c3         1 06X      -0.124100
     15 CAX          2.5760     1.4080    -3.1440 ce         1 06X      -0.218400
     16 CAU          2.9500     2.5110    -2.2490 c          1 06X       0.653300
     17 OAE          3.6560     2.4320    -1.2380 o          1 06X      -0.538000
     18 OAQ          2.4630     3.7430    -2.5920 os         1 06X      -0.439900
     19 CAB          2.7660     4.8190    -1.6970 c3         1 06X       0.124700
     20 CAT          2.2920     1.5670    -4.4680 c2         1 06X       0.182800
     21 CAC          2.1860     2.9040    -5.1270 c3         1 06X      -0.076900
     22 NAP          2.1100     0.4420    -5.2830 nu         1 06X      -0.609800
     23 CAW          2.3100    -0.8350    -4.8010 c2         1 06X       0.177800
     24 CAO          2.1040    -1.9560    -5.7980 c3         1 06X       0.134600
     25 OAR          3.0420    -1.9360    -6.8670 os         1 06X      -0.410600
     26 CAN          4.4060    -2.0530    -6.5020 c3         1 06X       0.101400
     27 CAM          4.9240    -3.4440    -6.8880 c3         1 06X       0.073800
     28 NAD          4.5280    -4.4980    -5.9180 nz         1 06X      -0.832600
     29 H1          -1.9890    -0.4800    -1.2600 ha         1 06X       0.152000
     30 H2          -1.4210    -0.3840     1.1630 ha         1 06X       0.147000
     31 H3           0.9590    -0.0580     1.8690 ha         1 06X       0.146000
     32 H4           2.7470     0.1520     0.1580 ha         1 06X       0.153000
     33 H5           3.3180    -4.5570    -1.6680 h1         1 06X       0.073700
     34 H6           3.3970    -3.6490    -0.0660 h1         1 06X       0.073700
     35 H7           5.7150    -2.8200    -0.6960 hc         1 06X       0.050367
     36 H8           5.6470    -4.6340    -0.6370 hc         1 06X       0.050367
     37 H9           5.6320    -3.7700    -2.2370 hc         1 06X       0.050367
     38 H10          2.3580     4.5940    -0.6820 h1         1 06X       0.058033
     39 H11          3.8710     4.9670    -1.6430 h1         1 06X       0.058033
     40 H12          2.2530     5.6960    -2.1620 h1         1 06X       0.058033
     41 H13          2.1120     2.8440    -6.2400 hc         1 06X       0.075700
     42 H14          1.2780     3.4300    -4.7320 hc         1 06X       0.075700
     43 H15          3.0810     3.5220    -4.8610 hc         1 06X       0.075700
     44 H16          2.1150    -2.9480    -5.2760 h1         1 06X       0.088700
     45 H17          1.1140    -1.8350    -6.3290 h1         1 06X       0.088700
     46 H18          4.5750    -1.8310    -5.4140 h1         1 06X       0.099200
     47 H19          4.9510    -1.3010    -7.1400 h1         1 06X       0.099200
     48 H20          6.0500    -3.4200    -6.9420 hx         1 06X       0.114700
     49 H21          4.5090    -3.7250    -7.9000 hx         1 06X       0.114700
     50 H22          4.9560    -4.3120    -4.9970 hn         1 06X       0.468133
     51 H23          3.5090    -4.4710    -5.7730 hn         1 06X       0.468133
     52 H25          3.5220     0.0030    -1.8500 hc         1 06X       0.093700
     53 H26          1.7540     0.5660    -6.2050 hn         1 06X       0.463800
     54 HAD3         4.8080    -5.4230    -6.2490 hn         1 06X       0.468133
@<TRIPOS>BOND
     1     1     2 1   
     2     2     3 ar  
     3     2     7 ar  
     4     3     4 ar  
     5     3    29 1   
     6     4     5 ar  
     7     4    30 1   
     8     5     6 ar  
     9     5    31 1   
    10     6     7 ar  
    11     6    32 1   
    12     7     8 1   
    13     8     9 1   
    14     8    15 1   
    15     8    52 1   
    16     9    10 1   
    17     9    23 2   
    18    10    11 2   
    19    10    12 1   
    20    12    13 1   
    21    13    14 1   
    22    13    33 1   
    23    13    34 1   
    24    14    35 1   
    25    14    36 1   
    26    14    37 1   
    27    15    16 1   
    28    15    20 2   
    29    16    17 2   
    30    16    18 1   
    31    18    19 1   
    32    19    38 1   
    33    19    39 1   
    34    19    40 1   
    35    20    21 1   
    36    20    22 1   
    37    21    41 1   
    38    21    42 1   
    39    21    43 1   
    40    22    23 1   
    41    22    53 1   
    42    23    24 1   
    43    24    25 1   
    44    24    44 1   
    45    24    45 1   
    46    25    26 1   
    47    26    27 1   
    48    26    46 1   
    49    26    47 1   
    50    27    28 1   
    51    27    48 1   
    52    27    49 1   
    53    28    50 1   
    54    28    51 1   
    55    28    54 1   
@<TRIPOS>SUBSTRUCTURE
     1 06X         1 TEMP              0 ****  ****    0 ROOT
