@<TRIPOS>MOLECULE
06X
   54    55     1     0     0
SMALL
bcc


@<TRIPOS>ATOM
      1 ClAG         0.0000     0.0000     0.0000 cl         1 06X       0.005600
      2 CAZ          1.7360     0.0000     0.0000 ca         1 06X      -0.027600
      3 CAJ          2.4280     0.0000     1.1970 ca         1 06X      -0.090000
      4 CAH          3.8100    -0.0010     1.1970 ca         1 06X      -0.079000
      5 CAI          4.5020    -0.0010    -0.0010 ca         1 06X      -0.104000
      6 CAK          3.8100    -0.0010    -1.1980 ca         1 06X      -0.081000
      7 CBA          2.4280    -0.0060    -1.1990 ca         1 06X      -0.106300
      8 CBB          1.6740    -0.0060    -2.5040 c3         1 06X       0.169000
      9 CAY          2.0370     1.2260    -3.2830 ce         1 06X      -0.188400
     10 CAV          1.4900     2.4730    -2.9000 c          1 06X       0.714300
     11 OAF          0.3510     2.7620    -3.2190 o          1 06X      -0.555000
     12 OAS          2.2300     3.3420    -2.1800 os         1 06X      -0.413900
     13 CAL          1.6140     4.5830    -1.8280 c3         1 06X       0.215400
     14 CAA          2.5990     5.4290    -1.0200 c3         1 06X       0.000900
     15 CAX          2.0240    -1.2460    -3.2770 ce         1 06X      -0.226400
     16 CAU          1.4640    -2.4850    -2.8880 c          1 06X       0.725300
     17 OAE          0.3220    -2.7620    -3.2030 o          1 06X      -0.561000
     18 OAQ          2.1960    -3.3600    -2.1660 os         1 06X      -0.409900
     19 CAB          1.5660    -4.5910    -1.8070 c3         1 06X       0.260700
     20 CAT          2.8570    -1.2030    -4.3310 c2         1 06X      -0.036200
     21 CAC          3.1860    -2.4740    -5.0720 c3         1 06X       0.051100
     22 NAP          3.4100    -0.0200    -4.7410 nu         1 06X      -0.134800
     23 CAW          2.8690     1.1700    -4.3370 c2         1 06X      -0.065200
     24 CAO          3.2110     2.4330    -5.0840 c3         1 06X       0.278600
     25 OAR          4.6020     2.7180    -4.9280 os         1 06X      -0.447600
     26 CAN          5.0320     3.9030    -5.6020 c3         1 06X       0.204400
     27 CAM          6.5300     4.1080    -5.3670 c3         1 06X      -0.048200
     28 NAD          7.2790     3.0100    -5.9950 nz         1 06X       0.087400
     29 H1           1.8860    -0.0000     2.1350 ha         1 06X       0.121000
     30 H2           4.3520    -0.0010     2.1350 ha         1 06X       0.110000
     31 H3           5.5850     0.0010    -0.0010 ha         1 06X       0.100000
     32 H4           4.3520    -0.0030    -2.1360 ha         1 06X       0.098000
     33 H5           1.3340     5.1150    -2.7280 h1         1 06X       0.012700
     34 H6           0.7300     4.3900    -1.2320 h1         1 06X       0.012700
     35 H7           2.1120     6.3430    -0.7010 hc         1 06X       0.010367
     36 H8           3.4560     5.6730    -1.6370 hc         1 06X       0.010367
     37 H9           2.9270     4.8710    -0.1510 hc         1 06X       0.010367
     38 H10          2.2700    -5.2130    -1.2680 h1         1 06X       0.004700
     39 H11          1.2420    -5.1050    -2.7030 h1         1 06X       0.004700
     40 H12          0.7080    -4.3880    -1.1770 h1         1 06X       0.004700
     41 H13          3.7480    -3.1350    -4.4230 hc         1 06X       0.023700
     42 H14          3.7780    -2.2380    -5.9480 hc         1 06X       0.023700
     43 H15          2.2680    -2.9620    -5.3770 hc         1 06X       0.023700
     44 H16          2.6270     3.2560    -4.6890 h1         1 06X       0.020200
     45 H17          2.9850     2.3030    -6.1360 h1         1 06X       0.020200
     46 H18          4.4860     4.7560    -5.2170 h1         1 06X       0.031200
     47 H19          4.8440     3.8030    -6.6640 h1         1 06X       0.031200
     48 H20          6.7310     4.1190    -4.3020 hx         1 06X       0.092200
     49 H21          6.8390     5.0510    -5.8020 hx         1 06X       0.092200
     50 H22          8.2430     3.2670    -6.0750 hn         1 06X       0.225467
     51 H23          7.1990     2.1870    -5.4320 hn         1 06X       0.225467
     52 H25          0.6090     0.0010    -2.3060 hc         1 06X       0.070700
     53 H26          4.0330    -0.0250    -5.5240 hn         1 06X       0.259800
     54 HAD3         6.9130     2.8380    -6.9100 hn         1 06X       0.225467
@<TRIPOS>BOND
     1     1     2 1   
     2     2     3 ar  
     3     2     7 ar  
     4     3     4 ar  
     5     3    29 1   
     6     4     5 ar  
     7     4    30 1   
     8     5     6 ar  
     9     5    31 1   
    10     6     7 ar  
    11     6    32 1   
    12     7     8 1   
    13     8     9 1   
    14     8    15 1   
    15     8    52 1   
    16     9    10 1   
    17     9    23 2   
    18    10    11 2   
    19    10    12 1   
    20    12    13 1   
    21    13    14 1   
    22    13    33 1   
    23    13    34 1   
    24    14    35 1   
    25    14    36 1   
    26    14    37 1   
    27    15    16 1   
    28    15    20 2   
    29    16    17 2   
    30    16    18 1   
    31    18    19 1   
    32    19    38 1   
    33    19    39 1   
    34    19    40 1   
    35    20    21 1   
    36    20    22 1   
    37    21    41 1   
    38    21    42 1   
    39    21    43 1   
    40    22    23 1   
    41    22    53 1   
    42    23    24 1   
    43    24    25 1   
    44    24    44 1   
    45    24    45 1   
    46    25    26 1   
    47    26    27 1   
    48    26    46 1   
    49    26    47 1   
    50    27    28 1   
    51    27    48 1   
    52    27    49 1   
    53    28    50 1   
    54    28    51 1   
    55    28    54 1   
@<TRIPOS>SUBSTRUCTURE
     1 06X         1 TEMP              0 ****  ****    0 ROOT
