@<TRIPOS>MOLECULE
molecule
   54    55     1     0     0
SMALL
bcc


@<TRIPOS>ATOM
      1 ClAG         0.0000     0.0000     0.0000 cl         1 06X      -0.088400
      2 CAZ          1.7360     0.0000     0.0000 ca         1 06X       0.039400
      3 CAJ          2.4280     0.0000     1.1970 ca         1 06X      -0.115000
      4 CAH          3.8100    -0.0010     1.1970 ca         1 06X      -0.109000
      5 CAI          4.5020    -0.0010    -0.0010 ca         1 06X      -0.132000
      6 CAK          3.8100    -0.0010    -1.1980 ca         1 06X      -0.099000
      7 CBA          2.4280    -0.0060    -1.1990 ca         1 06X      -0.088300
      8 CBB          1.6740    -0.0060    -2.5040 c3         1 06X       0.110000
      9 CAY          2.0370     1.2260    -3.2830 ce         1 06X      -0.171400
     10 CAV          1.4900     2.4730    -2.9000 c          1 06X       0.646300
     11 OAF          0.3510     2.7620    -3.2190 o          1 06X      -0.516000
     12 OAS          2.2300     3.3420    -2.1800 os         1 06X      -0.427900
     13 CAL          1.6140     4.5830    -1.8280 c3         1 06X       0.137400
     14 CAA          2.5990     5.4290    -1.0200 c3         1 06X      -0.093100
     15 CAX          2.0240    -1.2460    -3.2770 ce         1 06X      -0.213400
     16 CAU          1.4640    -2.4850    -2.8880 c          1 06X       0.658300
     17 OAE          0.3220    -2.7620    -3.2030 o          1 06X      -0.521000
     18 OAQ          2.1960    -3.3600    -2.1660 os         1 06X      -0.422900
     19 CAB          1.5660    -4.5910    -1.8070 c3         1 06X       0.132700
     20 CAT          2.8570    -1.2030    -4.3310 c2         1 06X       0.136800
     21 CAC          3.1860    -2.4740    -5.0720 c3         1 06X      -0.065900
     22 NAP          3.4100    -0.0200    -4.7410 nu         1 06X      -0.616800
     23 CAW          2.8690     1.1700    -4.3370 c2         1 06X       0.116800
     24 CAO          3.2110     2.4330    -5.0840 c3         1 06X       0.178600
     25 OAR          4.6020     2.7180    -4.9280 os         1 06X      -0.453600
     26 CAN          5.0320     3.9030    -5.6020 c3         1 06X       0.111400
     27 CAM          6.5300     4.1080    -5.3670 c3         1 06X       0.100800
     28 NAD          7.2790     3.0100    -5.9950 nz         1 06X      -0.808600
     29 H1           1.8860    -0.0000     2.1350 ha         1 06X       0.152000
     30 H2           4.3520    -0.0010     2.1350 ha         1 06X       0.141000
     31 H3           5.5850     0.0010    -0.0010 ha         1 06X       0.128000
     32 H4           4.3520    -0.0030    -2.1360 ha         1 06X       0.128000
     33 H5           1.3340     5.1150    -2.7280 h1         1 06X       0.051700
     34 H6           0.7300     4.3900    -1.2320 h1         1 06X       0.051700
     35 H7           2.1120     6.3430    -0.7010 hc         1 06X       0.047700
     36 H8           3.4560     5.6730    -1.6370 hc         1 06X       0.047700
     37 H9           2.9270     4.8710    -0.1510 hc         1 06X       0.047700
     38 H10          2.2700    -5.2130    -1.2680 h1         1 06X       0.052033
     39 H11          1.2420    -5.1050    -2.7030 h1         1 06X       0.052033
     40 H12          0.7080    -4.3880    -1.1770 h1         1 06X       0.052033
     41 H13          3.7480    -3.1350    -4.4230 hc         1 06X       0.064033
     42 H14          3.7780    -2.2380    -5.9480 hc         1 06X       0.064033
     43 H15          2.2680    -2.9620    -5.3770 hc         1 06X       0.064033
     44 H16          2.6270     3.2560    -4.6890 h1         1 06X       0.061700
     45 H17          2.9850     2.3030    -6.1360 h1         1 06X       0.061700
     46 H18          4.4860     4.7560    -5.2170 h1         1 06X       0.070700
     47 H19          4.8440     3.8030    -6.6640 h1         1 06X       0.070700
     48 H20          6.7310     4.1190    -4.3020 hx         1 06X       0.123200
     49 H21          6.8390     5.0510    -5.8020 hx         1 06X       0.123200
     50 H22          8.2430     3.2670    -6.0750 hn         1 06X       0.459800
     51 H23          7.1990     2.1870    -5.4320 hn         1 06X       0.459800
     52 H25          0.6090     0.0010    -2.3060 hc         1 06X       0.109700
     53 H26          4.0330    -0.0250    -5.5240 hn         1 06X       0.431800
     54 HAD3         6.9130     2.8380    -6.9100 hn         1 06X       0.459800
@<TRIPOS>BOND
     1    19    18 1   
     2    18    16 1   
     3    17    16 2   
     4    16    15 1   
     5    21    20 1   
     6     5     4 ar  
     7     5     6 ar  
     8     4     3 ar  
     9     6     7 ar  
    10    15    20 2   
    11    15     8 1   
    12    20    22 1   
    13     3     2 ar  
    14     7     2 ar  
    15     7     8 1   
    16     2     1 1   
    17     8     9 1   
    18    22    23 1   
    19    23     9 2   
    20    23    24 1   
    21     9    10 1   
    22    26    27 1   
    23    26    25 1   
    24    27    28 1   
    25    25    24 1   
    26    12    10 1   
    27    12    13 1   
    28    10    11 2   
    29    14    13 1   
    30     3    29 1   
    31     4    30 1   
    32     5    31 1   
    33     6    32 1   
    34    13    33 1   
    35    13    34 1   
    36    14    35 1   
    37    14    36 1   
    38    14    37 1   
    39    19    38 1   
    40    19    39 1   
    41    19    40 1   
    42    21    41 1   
    43    21    42 1   
    44    21    43 1   
    45    24    44 1   
    46    24    45 1   
    47    26    46 1   
    48    26    47 1   
    49    27    48 1   
    50    27    49 1   
    51    28    50 1   
    52    28    51 1   
    53     8    52 1   
    54    22    53 1   
    55    54    28 1   
@<TRIPOS>SUBSTRUCTURE
     1 06X         1 TEMP              0 ****  ****    0 ROOT
