@<TRIPOS>MOLECULE
06Y
   18    18     1     0     0
SMALL
bcc


@<TRIPOS>ATOM
      1 C1           0.0000     0.0000     0.0000 c          1 06Y       0.975600
      2 O1           1.2080     0.0000     0.0000 o          1 06Y      -0.883300
      3 C2          -0.7530     0.0000     1.3060 c3         1 06Y       0.081400
      4 O2           0.1750    -0.0020     2.3910 os         1 06Y      -0.257900
      5 C3          -0.3440    -0.0020     3.6470 ca         1 06Y       0.176100
      6 C4           0.5000    -0.0020     4.7470 ca         1 06Y      -0.193500
      7 C5          -0.0300    -0.0030     6.0230 ca         1 06Y      -0.068500
      8 C6          -1.4010    -0.0030     6.2030 ca         1 06Y      -0.185000
      9 C7          -2.2450    -0.0020     5.1080 ca         1 06Y      -0.068500
     10 C8          -1.7190     0.0050     3.8310 ca         1 06Y      -0.193500
     11 H30         -1.3750     0.8850     1.3640 h1         1 06Y      -0.004300
     12 H31         -1.3770    -0.8840     1.3630 h1         1 06Y      -0.004300
     13 H32          1.5740    -0.0020     4.6070 ha         1 06Y       0.123500
     14 H33          0.6290    -0.0030     6.8830 ha         1 06Y       0.087000
     15 H34         -1.8150    -0.0060     7.2050 ha         1 06Y       0.090000
     16 H35         -3.3180     0.0010     5.2520 ha         1 06Y       0.087000
     17 H36         -2.3810     0.0060     2.9730 ha         1 06Y       0.123500
     18 OXT         -0.6710     0.0060    -1.1620 o          1 06Y      -0.883300
@<TRIPOS>BOND
     1     1     2 1   
     2     1     3 1   
     3     1    18 1   
     4     3     4 1   
     5     3    11 1   
     6     3    12 1   
     7     4     5 1   
     8     5     6 ar  
     9     5    10 ar  
    10     6     7 ar  
    11     6    13 1   
    12     7     8 ar  
    13     7    14 1   
    14     8     9 ar  
    15     8    15 1   
    16     9    10 ar  
    17     9    16 1   
    18    10    17 1   
@<TRIPOS>SUBSTRUCTURE
     1 06Y         1 TEMP              0 ****  ****    0 ROOT
