@<TRIPOS>MOLECULE
06Z
   34    36     1     0     0
SMALL
bcc


@<TRIPOS>ATOM
      1 F            0.0000     0.0000     0.0000 f          1 06Z      -0.127900
      2 N1           6.0980    -1.2630    -0.5250 nc         1 06Z      -0.693000
      3 C2           7.2870    -1.7940    -0.6900 cc         1 06Z       0.584200
      4 N3           7.6480    -2.5090    -1.8210 nv         1 06Z      -0.558500
      5 C4           8.1460    -1.5700     0.3700 cd         1 06Z      -0.305000
      6 C5           9.4770    -2.0170     0.4700 c          1 06Z       0.702300
      7 C6          10.2220    -1.8480     1.7370 ca         1 06Z      -0.168600
      8 C7          11.6140    -1.7450     1.7240 ca         1 06Z      -0.066500
      9 C8          12.3020    -1.5860     2.9090 ca         1 06Z      -0.112000
     10 C9          11.6150    -1.5300     4.1090 ca         1 06Z      -0.080000
     11 C10         10.2360    -1.6310     4.1290 ca         1 06Z      -0.112000
     12 C11          9.5350    -1.7830     2.9500 ca         1 06Z      -0.066500
     13 O12         10.0160    -2.5440    -0.4890 o          1 06Z      -0.591100
     14 S13          7.2740    -0.6250     1.5740 ss         1 06Z      -0.291300
     15 C14          5.8830    -0.6130     0.5820 cd         1 06Z       0.563300
     16 C16          3.6340     0.0000     0.0000 ca         1 06Z       0.005600
     17 C17          2.3230     0.0000     0.4590 ca         1 06Z      -0.169000
     18 C18          1.2760     0.0000    -0.4450 ca         1 06Z       0.125900
     19 C19          1.5350     0.0010    -1.8050 ca         1 06Z      -0.147000
     20 C20          2.8400     0.0010    -2.2640 ca         1 06Z      -0.051000
     21 C21          3.8890     0.0060    -1.3650 ca         1 06Z      -0.121000
     22 HN3          7.1680    -3.3570    -2.0510 hn         1 06Z       0.283800
     23 HN3A         8.3830    -2.1740    -2.4120 hn         1 06Z       0.283800
     24 H7          12.1520    -1.7890     0.7850 ha         1 06Z       0.126000
     25 H8          13.3830    -1.5070     2.9000 ha         1 06Z       0.105000
     26 H9          12.1610    -1.4080     5.0370 ha         1 06Z       0.101000
     27 H10          9.7050    -1.5830     5.0720 ha         1 06Z       0.105000
     28 H11          8.4540    -1.8620     2.9680 ha         1 06Z       0.126000
     29 HN15         4.5950     0.4560     1.7960 hn         1 06Z       0.291800
     30 H17          2.1210    -0.0780     1.5210 ha         1 06Z       0.122000
     31 H19          0.7130    -0.0030    -2.5120 ha         1 06Z       0.120000
     32 H20          3.0390     0.0030    -3.3280 ha         1 06Z       0.109000
     33 H21          4.9100     0.0060    -1.7250 ha         1 06Z       0.147000
     34 N15          4.6950     0.0000     0.9110 nu         1 06Z      -0.239300
@<TRIPOS>BOND
     1     1    18 1   
     2     2     3 1   
     3     2    15 2   
     4     3     4 1   
     5     3     5 2   
     6     4    22 1   
     7     4    23 1   
     8     5     6 1   
     9     5    14 1   
    10     6     7 1   
    11     6    13 2   
    12     7     8 ar  
    13     7    12 ar  
    14     8     9 ar  
    15     8    24 1   
    16     9    10 ar  
    17     9    25 1   
    18    10    11 ar  
    19    10    26 1   
    20    11    12 ar  
    21    11    27 1   
    22    12    28 1   
    23    14    15 1   
    24    15    34 1   
    25    16    17 ar  
    26    16    21 ar  
    27    16    34 1   
    28    17    18 ar  
    29    17    30 1   
    30    18    19 ar  
    31    19    20 ar  
    32    19    31 1   
    33    20    21 ar  
    34    20    32 1   
    35    21    33 1   
    36    29    34 1   
@<TRIPOS>SUBSTRUCTURE
     1 06Z         1 TEMP              0 ****  ****    0 ROOT
