@<TRIPOS>MOLECULE
06Z
   34    36     1     0     0
SMALL
bcc


@<TRIPOS>ATOM
      1 F            0.4350    -0.5340    -0.4170 f          1 06Z      -0.134900
      2 N1           6.7410    -0.3700     2.3690 nc         1 06Z      -0.765000
      3 C2           8.0280    -0.9040     2.1600 cc         1 06Z       0.723200
      4 N3           8.8690    -1.1560     3.2040 nv         1 06Z      -0.937500
      5 C4           8.3580    -1.1200     0.7910 cd         1 06Z      -0.433000
      6 C5           9.5670    -1.7420     0.3140 c          1 06Z       0.643300
      7 C6           9.7110    -1.8860    -1.1580 ca         1 06Z      -0.153600
      8 C7           9.3580    -0.8520    -2.0320 ca         1 06Z      -0.096000
      9 C8           9.5110    -1.0180    -3.4080 ca         1 06Z      -0.137000
     10 C9          10.0140    -2.2150    -3.9170 ca         1 06Z      -0.113000
     11 C10         10.3760    -3.2450    -3.0480 ca         1 06Z      -0.137000
     12 C11         10.2330    -3.0800    -1.6720 ca         1 06Z      -0.096000
     13 O12         10.4530    -2.1760     1.0740 o          1 06Z      -0.588100
     14 S13          7.0980    -0.6020    -0.2030 ss         1 06Z      -0.073300
     15 C14          6.1460    -0.1600     1.1710 cd         1 06Z       0.669300
     16 C16          4.0120     0.1460     0.0180 ca         1 06Z       0.151600
     17 C17          2.6520    -0.0810     0.3220 ca         1 06Z      -0.207000
     18 C18          1.7390    -0.3220    -0.7160 ca         1 06Z       0.153900
     19 C19          2.1630    -0.3530    -2.0570 ca         1 06Z      -0.180000
     20 C20          3.5040    -0.1270    -2.3420 ca         1 06Z      -0.079000
     21 C21          4.4260     0.1290    -1.3300 ca         1 06Z      -0.167000
     22 HN3          9.7210    -1.6330     3.0090 hn         1 06Z       0.455300
     23 HN3A         8.5380    -1.1000     4.1350 hn         1 06Z       0.455300
     24 H7           8.9800     0.1060    -1.6350 ha         1 06Z       0.146500
     25 H8           9.2390    -0.2000    -4.0910 ha         1 06Z       0.135000
     26 H9          10.1300    -2.3450    -5.0030 ha         1 06Z       0.133000
     27 H10         10.7800    -4.1870    -3.4480 ha         1 06Z       0.135000
     28 H11         10.5350    -3.8790    -0.9760 ha         1 06Z       0.146500
     29 HN15         4.4520     0.6580     1.9410 hn         1 06Z       0.440800
     30 H17          2.2880    -0.0710     1.3610 ha         1 06Z       0.155000
     31 H19          1.4350    -0.5520    -2.8560 ha         1 06Z       0.155000
     32 H20          3.8450    -0.1420    -3.3890 ha         1 06Z       0.144000
     33 H21          5.4720     0.3410    -1.6080 ha         1 06Z       0.149000
     34 N15          4.9050     0.4660     1.0650 nu         1 06Z      -0.695300
@<TRIPOS>BOND
     1     1    18 1   
     2     2     3 1   
     3     2    15 2   
     4     3     4 1   
     5     3     5 2   
     6     4    22 1   
     7     4    23 1   
     8     5     6 1   
     9     5    14 1   
    10     6     7 1   
    11     6    13 2   
    12     7     8 ar  
    13     7    12 ar  
    14     8     9 ar  
    15     8    24 1   
    16     9    10 ar  
    17     9    25 1   
    18    10    11 ar  
    19    10    26 1   
    20    11    12 ar  
    21    11    27 1   
    22    12    28 1   
    23    14    15 1   
    24    15    34 1   
    25    16    17 ar  
    26    16    21 ar  
    27    16    34 1   
    28    17    18 ar  
    29    17    30 1   
    30    18    19 ar  
    31    19    20 ar  
    32    19    31 1   
    33    20    21 ar  
    34    20    32 1   
    35    21    33 1   
    36    29    34 1   
@<TRIPOS>SUBSTRUCTURE
     1 06Z         1 TEMP              0 ****  ****    0 ROOT
