@<TRIPOS>MOLECULE
molecule
   43    45     1     0     0
SMALL
bcc


@<TRIPOS>ATOM
      1 C27          0.0000     0.0000     0.0000 ca         1 070      -0.119000
      2 C28          1.3820     0.0000     0.0000 ca         1 070      -0.120000
      3 C29          2.0740     0.0000     1.1970 ca         1 070      -0.111000
      4 C30          1.3820     0.0000     2.3940 ca         1 070      -0.120000
      5 C31         -0.0010     0.0010     2.3930 ca         1 070      -0.119000
      6 C26         -0.6920     0.0010     1.1970 ca         1 070      -0.110300
      7 C25         -2.1980     0.0070     1.1960 c3         1 070      -0.020100
      8 C24         -2.7150    -1.4330     1.1940 cx         1 070       0.117100
      9 O5          -3.5170    -1.8560     2.2990 op         1 070      -0.346600
     10 C23         -4.2250    -1.6490     1.0750 cx         1 070      -0.051900
     11 C22         -4.7100    -2.8860     0.3150 c3         1 070       0.142100
     12 O4          -4.2330    -2.8360    -1.0300 oh         1 070      -0.613800
     13 C14         -6.2400    -2.9140     0.3130 c3         1 070       0.110500
     14 C15         -6.7270    -4.1500    -0.4460 c3         1 070      -0.051100
     15 C16         -8.2270    -4.2440    -0.3440 ca         1 070      -0.153300
     16 C17         -8.8070    -4.9380     0.7020 ca         1 070      -0.134000
     17 C18        -10.1830    -5.0250     0.7950 ca         1 070      -0.107000
     18 C19        -10.9800    -4.4180    -0.1570 ca         1 070      -0.098000
     19 C20        -10.4010    -3.7230    -1.2030 ca         1 070      -0.107000
     20 C21         -9.0250    -3.6330    -1.2930 ca         1 070      -0.134000
     21 N2          -6.7520    -1.7030    -0.3430 nz         1 070      -0.803600
     22 H1          -0.5410    -0.0000    -0.9380 ha         1 070       0.130500
     23 H2           1.9240    -0.0000    -0.9380 ha         1 070       0.140500
     24 H3           3.1570    -0.0000     1.1970 ha         1 070       0.142000
     25 H4           1.9230     0.0010     3.3330 ha         1 070       0.140500
     26 H5          -0.5430     0.0020     3.3310 ha         1 070       0.130500
     27 H6          -2.5570     0.5210     0.3130 hc         1 070       0.067200
     28 H7          -2.5570     0.5180     2.0810 hc         1 070       0.067200
     29 H8          -2.1080    -2.2120     0.7480 h1         1 070       0.106700
     30 H9          -4.8130    -0.7400     1.0380 h1         1 070       0.076700
     31 H10         -4.3340    -3.7790     0.8000 h1         1 070       0.102700
     32 H11         -3.5920    -3.5150    -1.1620 ho         1 070       0.445000
     33 H12         -6.6020    -2.9520     1.3330 hx         1 070       0.125700
     34 H13         -6.2790    -5.0370    -0.0150 hc         1 070       0.090700
     35 H14         -6.4400    -4.0700    -1.4880 hc         1 070       0.090700
     36 H15         -8.1820    -5.4140     1.4480 ha         1 070       0.128000
     37 H16        -10.6370    -5.5690     1.6140 ha         1 070       0.153000
     38 H17        -12.0590    -4.4880    -0.0850 ha         1 070       0.156000
     39 H18        -11.0250    -3.2450    -1.9480 ha         1 070       0.153000
     40 H19         -8.5710    -3.0890    -2.1130 ha         1 070       0.128000
     41 H20         -7.7160    -1.5760    -0.1040 hn         1 070       0.457800
     42 H21         -6.2250    -0.9090    -0.0350 hn         1 070       0.457800
     43 H23         -6.6640    -1.7980    -1.3350 hn         1 070       0.457800
@<TRIPOS>BOND
     1     3     4 ar
     2     3     2 ar
     3     4     5 ar
     4     2     1 ar
     5     5     6 ar
     6     1     6 ar
     7     6     7 1
     8     9     8 1
     9     9    10 1
    10     7     8 1
    11     8    10 1
    12    10    11 1
    13    17    16 ar
    14    17    18 ar
    15    16    15 ar
    16    11    13 1
    17    11    12 1
    18    13    21 1
    19    13    14 1
    20    18    19 ar
    21    15    14 1
    22    15    20 ar
    23    19    20 ar
    24     1    22 1
    25     2    23 1
    26     3    24 1
    27     4    25 1
    28     5    26 1
    29     7    27 1
    30     7    28 1
    31     8    29 1
    32    10    30 1
    33    11    31 1
    34    12    32 1
    35    13    33 1
    36    14    34 1
    37    14    35 1
    38    16    36 1
    39    17    37 1
    40    18    38 1
    41    19    39 1
    42    20    40 1
    43    21    41 1
    44    21    42 1
    45    43    21 1
@<TRIPOS>SUBSTRUCTURE
     1 070         1 TEMP              0 ****  ****    0 ROOT
