@<TRIPOS>MOLECULE
070
   43    45     1     0     0
SMALL
bcc


@<TRIPOS>ATOM
      1 C27          0.0000     0.0000     0.0000 ca         1 070      -0.092500
      2 C28          1.3820     0.0000     0.0000 ca         1 070      -0.090500
      3 C29          2.0740     0.0000     1.1970 ca         1 070      -0.082000
      4 C30          1.3820     0.0000     2.3940 ca         1 070      -0.090500
      5 C31         -0.0010     0.0010     2.3930 ca         1 070      -0.092500
      6 C26         -0.6920     0.0010     1.1970 ca         1 070      -0.123300
      7 C25         -2.1980     0.0070     1.1960 c3         1 070       0.046900
      8 C24         -2.7150    -1.4330     1.1940 cx         1 070       0.174100
      9 O5          -3.5170    -1.8560     2.2990 op         1 070      -0.349600
     10 C23         -4.2250    -1.6490     1.0750 cx         1 070      -0.022900
     11 C22         -4.7100    -2.8860     0.3150 c3         1 070       0.199100
     12 O4          -4.2330    -2.8360    -1.0300 oh         1 070      -0.600800
     13 C14         -6.2400    -2.9140     0.3130 c3         1 070      -0.077500
     14 C15         -6.7270    -4.1500    -0.4460 c3         1 070       0.033900
     15 C16         -8.2270    -4.2440    -0.3440 ca         1 070      -0.175300
     16 C17         -8.8070    -4.9380     0.7020 ca         1 070      -0.103500
     17 C18        -10.1830    -5.0250     0.7950 ca         1 070      -0.073500
     18 C19        -10.9800    -4.4180    -0.1570 ca         1 070      -0.064000
     19 C20        -10.4010    -3.7230    -1.2030 ca         1 070      -0.073500
     20 C21         -9.0250    -3.6330    -1.2930 ca         1 070      -0.103500
     21 N2          -6.7520    -1.7030    -0.3430 nz         1 070       0.054400
     22 H1          -0.5410    -0.0000    -0.9380 ha         1 070       0.104500
     23 H2           1.9240    -0.0000    -0.9380 ha         1 070       0.111000
     24 H3           3.1570    -0.0000     1.1970 ha         1 070       0.112000
     25 H4           1.9230     0.0010     3.3330 ha         1 070       0.111000
     26 H5          -0.5430     0.0020     3.3310 ha         1 070       0.104500
     27 H6          -2.5570     0.5210     0.3130 hc         1 070       0.032200
     28 H7          -2.5570     0.5180     2.0810 hc         1 070       0.032200
     29 H8          -2.1080    -2.2120     0.7480 h1         1 070       0.066700
     30 H9          -4.8130    -0.7400     1.0380 h1         1 070       0.052700
     31 H10         -4.3340    -3.7790     0.8000 h1         1 070       0.060700
     32 H11         -3.5920    -3.5150    -1.1620 ho         1 070       0.438000
     33 H12         -6.6020    -2.9520     1.3330 hx         1 070       0.100700
     34 H13         -6.2790    -5.0370    -0.0150 hc         1 070       0.056200
     35 H14         -6.4400    -4.0700    -1.4880 hc         1 070       0.056200
     36 H15         -8.1820    -5.4140     1.4480 ha         1 070       0.104000
     37 H16        -10.6370    -5.5690     1.6140 ha         1 070       0.121000
     38 H17        -12.0590    -4.4880    -0.0850 ha         1 070       0.122000
     39 H18        -11.0250    -3.2450    -1.9480 ha         1 070       0.121000
     40 H19         -8.5710    -3.0890    -2.1130 ha         1 070       0.104000
     41 H20         -7.7160    -1.5760    -0.1040 hn         1 070       0.232800
     42 H21         -6.2250    -0.9090    -0.0350 hn         1 070       0.232800
     43 H23         -6.6640    -1.7980    -1.3350 hn         1 070       0.232800
@<TRIPOS>BOND
     1     1     2 ar  
     2     1     6 ar  
     3     1    22 1   
     4     2     3 ar  
     5     2    23 1   
     6     3     4 ar  
     7     3    24 1   
     8     4     5 ar  
     9     4    25 1   
    10     5     6 ar  
    11     5    26 1   
    12     6     7 1   
    13     7     8 1   
    14     7    27 1   
    15     7    28 1   
    16     8     9 1   
    17     8    10 1   
    18     8    29 1   
    19     9    10 1   
    20    10    11 1   
    21    10    30 1   
    22    11    12 1   
    23    11    13 1   
    24    11    31 1   
    25    12    32 1   
    26    13    14 1   
    27    13    21 1   
    28    13    33 1   
    29    14    15 1   
    30    14    34 1   
    31    14    35 1   
    32    15    16 ar  
    33    15    20 ar  
    34    16    17 ar  
    35    16    36 1   
    36    17    18 ar  
    37    17    37 1   
    38    18    19 ar  
    39    18    38 1   
    40    19    20 ar  
    41    19    39 1   
    42    20    40 1   
    43    21    41 1   
    44    21    42 1   
    45    21    43 1   
@<TRIPOS>SUBSTRUCTURE
     1 070         1 TEMP              0 ****  ****    0 ROOT
