@<TRIPOS>MOLECULE
070
   43    45     1     0     0
SMALL
bcc


@<TRIPOS>ATOM
      1 C27         -0.5990     0.1270     0.1860 ca         1 070      -0.125000
      2 C28          0.6060    -0.2720    -0.3920 ca         1 070      -0.121000
      3 C29          1.6290    -0.7850     0.4060 ca         1 070      -0.113000
      4 C30          1.4470    -0.8940     1.7850 ca         1 070      -0.121000
      5 C31          0.2450    -0.4940     2.3650 ca         1 070      -0.125000
      6 C26         -0.7870     0.0160     1.5670 ca         1 070      -0.108300
      7 C25         -2.0620     0.4640     2.1920 c3         1 070      -0.032100
      8 C24         -2.8550    -0.7080     2.6920 cx         1 070       0.124100
      9 O5          -4.1780    -0.4070     3.1890 op         1 070      -0.454600
     10 C23         -4.0790    -1.1800     1.9810 cx         1 070      -0.001900
     11 C22         -4.5420    -2.6190     2.0630 c3         1 070       0.131100
     12 O4          -5.6790    -2.8180     1.2370 oh         1 070      -0.618800
     13 C14         -4.9700    -3.0330     3.4930 c3         1 070       0.135500
     14 C15         -5.2070    -4.5480     3.5570 c3         1 070      -0.055100
     15 C16         -5.7150    -4.9680     4.8900 ca         1 070      -0.156300
     16 C17         -4.8230    -5.2320     5.9360 ca         1 070      -0.134500
     17 C18         -5.3030    -5.6520     7.1760 ca         1 070      -0.113500
     18 C19         -6.6740    -5.8130     7.3790 ca         1 070      -0.100000
     19 C20         -7.5670    -5.5580     6.3370 ca         1 070      -0.113500
     20 C21         -7.0910    -5.1370     5.0960 ca         1 070      -0.134500
     21 N2          -6.1900    -2.2730     3.9270 nz         1 070      -0.836600
     22 H1          -1.3960     0.5430    -0.4480 ha         1 070       0.130000
     23 H2           0.7510    -0.1760    -1.4780 ha         1 070       0.143500
     24 H3           2.5810    -1.0960    -0.0500 ha         1 070       0.146000
     25 H4           2.2570    -1.2880     2.4180 ha         1 070       0.143500
     26 H5           0.1110    -0.5640     3.4550 ha         1 070       0.130000
     27 H6          -2.6740     1.0600     1.4620 hc         1 070       0.078200
     28 H7          -1.8410     1.1380     3.0660 hc         1 070       0.078200
     29 H8          -2.2870    -1.4140     3.3350 h1         1 070       0.097700
     30 H9          -4.4350    -0.6480     1.0730 h1         1 070       0.124700
     31 H10         -3.6990    -3.2990     1.7460 h1         1 070       0.097700
     32 H11         -5.3860    -2.7750     0.3160 ho         1 070       0.450000
     33 H12         -4.1390    -2.7460     4.2070 hx         1 070       0.114700
     34 H13         -5.9210    -4.8490     2.7430 hc         1 070       0.095200
     35 H14         -4.2240    -5.0490     3.3420 hc         1 070       0.095200
     36 H15         -3.7390    -5.1260     5.7750 ha         1 070       0.136000
     37 H16         -4.5960    -5.8670     7.9930 ha         1 070       0.155000
     38 H17         -7.0510    -6.1540     8.3570 ha         1 070       0.158000
     39 H18         -8.6480    -5.7040     6.4900 ha         1 070       0.155000
     40 H19         -7.7970    -4.9810     4.2660 ha         1 070       0.136000
     41 H20         -6.5670    -2.6960     4.7840 hn         1 070       0.469467
     42 H21         -5.9380    -1.2900     4.0920 hn         1 070       0.469467
     43 H23         -6.8960    -2.3210     3.1840 hn         1 070       0.469467
@<TRIPOS>BOND
     1     1     2 ar  
     2     1     6 ar  
     3     1    22 1   
     4     2     3 ar  
     5     2    23 1   
     6     3     4 ar  
     7     3    24 1   
     8     4     5 ar  
     9     4    25 1   
    10     5     6 ar  
    11     5    26 1   
    12     6     7 1   
    13     7     8 1   
    14     7    27 1   
    15     7    28 1   
    16     8     9 1   
    17     8    10 1   
    18     8    29 1   
    19     9    10 1   
    20    10    11 1   
    21    10    30 1   
    22    11    12 1   
    23    11    13 1   
    24    11    31 1   
    25    12    32 1   
    26    13    14 1   
    27    13    21 1   
    28    13    33 1   
    29    14    15 1   
    30    14    34 1   
    31    14    35 1   
    32    15    16 ar  
    33    15    20 ar  
    34    16    17 ar  
    35    16    36 1   
    36    17    18 ar  
    37    17    37 1   
    38    18    19 ar  
    39    18    38 1   
    40    19    20 ar  
    41    19    39 1   
    42    20    40 1   
    43    21    41 1   
    44    21    42 1   
    45    21    43 1   
@<TRIPOS>SUBSTRUCTURE
     1 070         1 TEMP              0 ****  ****    0 ROOT
