@<TRIPOS>MOLECULE
071
   62    66     1     0     0
SMALL
bcc


@<TRIPOS>ATOM
      1 N1           0.0630     0.3250    -0.1540 nb         1 071      -0.711000
      2 C2           1.4570     0.3870    -0.0280 ca         1 071       0.888900
      3 N3           2.1250     0.4070     1.1880 nb         1 071      -0.751000
      4 C4          -0.6420     0.3040     0.9760 ca         1 071       0.481200
      5 C5          -0.0630     0.3330     2.2700 ca         1 071      -0.348900
      6 C6           1.3510     0.3890     2.2950 ca         1 071       0.530800
      7 C7          -0.2820     0.8460     4.7440 c3         1 071      -0.025100
      8 C8          -0.8990     0.2380     3.4900 c3         1 071      -0.015100
      9 C9           1.1710     0.6580     4.7820 cc         1 071      -0.093600
     10 C10          1.9530     0.4560     3.6190 cd         1 071      -0.174800
     11 N11          3.2970     0.3570     4.0240 na         1 071       0.229400
     12 N12          3.4160     0.4750     5.3270 nd         1 071      -0.505800
     13 C13          2.1350     0.6630     5.8510 cc         1 071       0.153800
     14 C14          1.8410     0.8240     7.2460 c          1 071       0.512600
     15 N15          3.0530     0.7980     8.1720 nz         1 071      -0.755400
     16 O16          0.7720     0.9750     7.8200 o          1 071      -0.428100
     17 C17          4.4200     0.1410     3.1190 c3         1 071       0.014600
     18 N18          2.1910     0.5180    -1.2180 nu         1 071      -0.677300
     19 C19          3.5860     0.2610    -1.2520 ca         1 071       0.102600
     20 C20          4.4810     1.0830    -0.5530 ca         1 071      -0.111000
     21 C21          5.8780     0.8840    -0.6310 ca         1 071       0.093600
     22 C22          6.3630    -0.1580    -1.4440 ca         1 071      -0.138000
     23 C23          5.4890    -0.9820    -2.1450 ca         1 071      -0.165000
     24 C24          4.1100    -0.7900    -2.0600 ca         1 071       0.085100
     25 O25          3.1790    -1.5760    -2.7130 os         1 071      -0.340900
     26 C26          3.6840    -2.4340    -3.7330 c3         1 071       0.115700
     27 N30          6.7250     1.6990     0.1750 nh         1 071      -0.633000
     28 C31          6.6240     3.1280    -0.1110 c3         1 071       0.172800
     29 C32          7.4490     3.9840     0.8710 c3         1 071       0.169800
     30 N33          8.8280     3.5390     0.9880 n3         1 071      -0.733600
     31 C34          8.9290     2.1140     1.2570 c3         1 071       0.169800
     32 C35          8.1120     1.2620     0.2650 c3         1 071       0.172800
     33 C36          9.5990     4.3410     1.9090 c3         1 071       0.158100
     34 H4          -1.7430     0.2560     0.8540 h4         1 071       0.044100
     35 H7          -0.4990     1.9520     4.7750 hc         1 071       0.080200
     36 H7A         -0.7610     0.3930     5.6550 hc         1 071       0.080200
     37 H8          -1.8890     0.7390     3.3080 hc         1 071       0.069200
     38 H8A         -1.1120    -0.8520     3.6810 hc         1 071       0.069200
     39 HN15         3.6980     1.5510     7.9150 hn         1 071       0.467800
     40 HN1A         2.7520     0.9220     9.1450 hn         1 071       0.467800
     41 H17          5.3800     0.0640     3.6940 h1         1 071       0.099367
     42 H17A         4.4740     1.0020     2.3970 h1         1 071       0.099367
     43 H17B         4.2330    -0.8100     2.5510 h1         1 071       0.099367
     44 HN18         1.7050     0.2250    -2.0470 hn         1 071       0.462800
     45 H20          4.0810     1.9020     0.0680 ha         1 071       0.151000
     46 H22          7.4440    -0.3430    -1.5460 ha         1 071       0.145000
     47 H23          5.9000    -1.7880    -2.7720 ha         1 071       0.149000
     48 H26          2.7560    -2.8530    -4.1990 h1         1 071       0.052033
     49 H26A         4.2800    -1.8580    -4.4810 h1         1 071       0.052033
     50 H26B         4.2990    -3.2510    -3.2810 h1         1 071       0.052033
     51 H31          5.5470     3.4390    -0.0160 h1         1 071       0.048200
     52 H31A         6.9620     3.3580    -1.1630 h1         1 071       0.048200
     53 H32          7.4590     5.0390     0.4760 h1         1 071       0.036950
     54 H32A         6.9250     3.9940     1.8720 h1         1 071       0.036950
     55 H34          8.6040     1.8610     2.3090 h1         1 071       0.036950
     56 H34A        10.0100     1.8180     1.1500 h1         1 071       0.036950
     57 H35          8.6280     1.2950    -0.7390 h1         1 071       0.048200
     58 H35A         8.1220     0.1980     0.6320 h1         1 071       0.048200
     59 H36          9.5500     5.4130     1.5830 h1         1 071       0.035700
     60 H36A        10.6680     4.0020     1.8740 h1         1 071       0.035700
     61 H36B         9.2360     4.2720     2.9720 h1         1 071       0.035700
     62 H153         3.5400    -0.0970     8.0760 hn         1 071       0.467800
@<TRIPOS>BOND
     1     1     2 ar  
     2     1     4 ar  
     3     2     3 ar  
     4     2    18 1   
     5     3     6 ar  
     6     4     5 ar  
     7     4    34 1   
     8     5     6 ar  
     9     5     8 1   
    10     6    10 1   
    11     7     8 1   
    12     7     9 1   
    13     7    35 1   
    14     7    36 1   
    15     8    37 1   
    16     8    38 1   
    17     9    10 2   
    18     9    13 1   
    19    10    11 1   
    20    11    12 1   
    21    11    17 1   
    22    12    13 2   
    23    13    14 1   
    24    14    15 1   
    25    14    16 2   
    26    15    39 1   
    27    15    40 1   
    28    15    62 1   
    29    17    41 1   
    30    17    42 1   
    31    17    43 1   
    32    18    19 1   
    33    18    44 1   
    34    19    20 ar  
    35    19    24 ar  
    36    20    21 ar  
    37    20    45 1   
    38    21    22 ar  
    39    21    27 1   
    40    22    23 ar  
    41    22    46 1   
    42    23    24 ar  
    43    23    47 1   
    44    24    25 1   
    45    25    26 1   
    46    26    48 1   
    47    26    49 1   
    48    26    50 1   
    49    27    28 1   
    50    27    32 1   
    51    28    29 1   
    52    28    51 1   
    53    28    52 1   
    54    29    30 1   
    55    29    53 1   
    56    29    54 1   
    57    30    31 1   
    58    30    33 1   
    59    31    32 1   
    60    31    55 1   
    61    31    56 1   
    62    32    57 1   
    63    32    58 1   
    64    33    59 1   
    65    33    60 1   
    66    33    61 1   
@<TRIPOS>SUBSTRUCTURE
     1 071         1 TEMP              0 ****  ****    0 ROOT
