@<TRIPOS>MOLECULE
molecule
   62    66     1     0     0
SMALL
bcc


@<TRIPOS>ATOM
      1 N1           0.0000     0.0000     0.0000 nb         1 071      -0.758000
      2 C2           1.3260     0.0000     0.0000 ca         1 071       0.950900
      3 N3           2.0200     0.0000     1.1310 nb         1 071      -0.803000
      4 C4          -0.6900     0.0190     1.1310 ca         1 071       0.516200
      5 C5          -0.0100     0.0370     2.3340 ca         1 071      -0.379900
      6 C6           1.3930     0.0000     2.2960 ca         1 071       0.562800
      7 C7          -0.0600    -0.6220     4.7650 c3         1 071      -0.015100
      8 C8          -0.7520     0.1390     3.6340 c3         1 071      -0.016100
      9 C9           1.4120    -0.3300     4.7480 cc         1 071      -0.151600
     10 C10          2.0990    -0.0490     3.5870 cd         1 071      -0.168800
     11 N11          3.3900     0.1390     3.9280 na         1 071       0.238400
     12 N12          3.5250     0.0090     5.2060 nd         1 071      -0.537800
     13 C13          2.3600    -0.2760     5.7690 cc         1 071       0.187800
     14 C14          2.1120    -0.4930     7.2100 c          1 071       0.450600
     15 N15          3.1290    -0.4080     8.0890 nz         1 071      -0.674400
     16 O16          0.9900    -0.7500     7.6000 o          1 071      -0.419100
     17 C17          4.4750     0.4420     2.9920 c3         1 071       0.041600
     18 N18          2.0020    -0.0010    -1.2090 nu         1 071      -0.727300
     19 C19          1.2910     0.1260    -2.4090 ca         1 071       0.135600
     20 C20          0.1190     0.8670    -2.4470 ca         1 071      -0.121000
     21 C21         -0.5830     0.9920    -3.6370 ca         1 071       0.091600
     22 C22         -0.1120     0.3760    -4.7890 ca         1 071      -0.152000
     23 C23          1.0560    -0.3630    -4.7530 ca         1 071      -0.174000
     24 C24          1.7630    -0.4860    -3.5680 ca         1 071       0.090100
     25 O25          2.9150    -1.2080    -3.5350 os         1 071      -0.344900
     26 C26          3.3400    -1.8080    -4.7600 c3         1 071       0.130700
     27 N30         -1.7660     1.7380    -3.6770 nh         1 071      -0.595000
     28 C31         -2.3430     1.7400    -5.0280 c3         1 071       0.163800
     29 C32         -3.6720     2.4970    -5.0120 c3         1 071       0.161300
     30 N33         -3.4450     3.8700    -4.5390 n3         1 071      -0.733600
     31 C34         -2.8690     3.8690    -3.1880 c3         1 071       0.161300
     32 C35         -1.5390     3.1110    -3.2040 c3         1 071       0.163800
     33 C36         -4.6860     4.6530    -4.5810 c3         1 071       0.152100
     34 H4          -1.7600    -0.1490     1.1150 h4         1 071       0.047100
     35 H7          -0.4700    -0.2890     5.7110 hc         1 071       0.074700
     36 H7A         -0.2060    -1.6840     4.6090 hc         1 071       0.074700
     37 H8          -1.7290    -0.3070     3.4890 hc         1 071       0.067200
     38 H8A         -0.7800     1.1860     3.9130 hc         1 071       0.067200
     39 HN15         3.5290     0.5080     8.0490 hn         1 071       0.480133
     40 HN1A         3.8260    -1.0880     7.8590 hn         1 071       0.480133
     41 H17          4.2260     1.3320     2.4270 h1         1 071       0.086700
     42 H17A         5.3920     0.6100     3.5440 h1         1 071       0.086700
     43 H17B         4.6100    -0.3910     2.3130 h1         1 071       0.086700
     44 HN18         3.0010    -0.0620    -1.2230 hn         1 071       0.476800
     45 H20         -0.2480     1.3480    -1.5480 ha         1 071       0.163000
     46 H22         -0.6620     0.4720    -5.7180 ha         1 071       0.146000
     47 H23          1.4220    -0.8410    -5.6530 ha         1 071       0.144000
     48 H26          4.2650    -2.3480    -4.5960 h1         1 071       0.045033
     49 H26A         2.5780    -2.4950    -5.1090 h1         1 071       0.045033
     50 H26B         3.4990    -1.0370    -5.5040 h1         1 071       0.045033
     51 H31         -1.6580     2.2280    -5.7120 h1         1 071       0.048950
     52 H31A        -2.5140     0.7190    -5.3480 h1         1 071       0.048950
     53 H32         -4.0830     2.5250    -6.0140 h1         1 071       0.043700
     54 H32A        -4.3640     1.9970    -4.3460 h1         1 071       0.043700
     55 H34         -2.6970     4.8900    -2.8680 h1         1 071       0.043700
     56 H34A        -3.5530     3.3810    -2.5050 h1         1 071       0.043700
     57 H35         -1.1280     3.0840    -2.2020 h1         1 071       0.048950
     58 H35A        -0.8470     3.6120    -3.8710 h1         1 071       0.048950
     59 H36         -5.0720     4.6650    -5.5930 h1         1 071       0.035033
     60 H36A        -5.4190     4.2040    -3.9210 h1         1 071       0.035033
     61 H36B        -4.4840     5.6680    -4.2590 h1         1 071       0.035033
     62 H153         2.7870    -0.5890     9.0130 hn         1 071       0.480133
@<TRIPOS>BOND
     1     1     2 ar
     2     1     4 ar
     3     2     3 ar
     4     2    18 1
     5     3     6 ar
     6     4     5 ar
     7     5     6 ar
     8     5     8 1
     9     6    10 1
    10     7     8 1
    11     7     9 1
    12     9    10 2
    13     9    13 1
    14    10    11 1
    15    11    12 1
    16    11    17 1
    17    12    13 2
    18    13    14 1
    19    14    15 1
    20    14    16 2
    21    18    19 1
    22    19    20 ar
    23    19    24 ar
    24    20    21 ar
    25    21    22 ar
    26    21    27 1
    27    22    23 ar
    28    23    24 ar
    29    24    25 1
    30    25    26 1
    31    27    28 1
    32    27    32 1
    33    28    29 1
    34    29    30 1
    35    30    31 1
    36    30    33 1
    37    31    32 1
    38     4    34 1
    39     7    35 1
    40     7    36 1
    41     8    37 1
    42     8    38 1
    43    15    39 1
    44    15    40 1
    45    17    41 1
    46    17    42 1
    47    17    43 1
    48    18    44 1
    49    20    45 1
    50    22    46 1
    51    23    47 1
    52    26    48 1
    53    26    49 1
    54    26    50 1
    55    28    51 1
    56    28    52 1
    57    29    53 1
    58    29    54 1
    59    31    55 1
    60    31    56 1
    61    32    57 1
    62    32    58 1
    63    33    59 1
    64    33    60 1
    65    33    61 1
    66    62    15 1
@<TRIPOS>SUBSTRUCTURE
     1 071         1 TEMP              0 ****  ****    0 ROOT
