@<TRIPOS>MOLECULE
molecule
   89    92     1     0     0
SMALL
bcc


@<TRIPOS>ATOM
      1 S1B          0.0000     0.0000     0.0000 ss         1 072      -0.335200
      2 C1A          2.1220     0.0000     1.4940 c          1 072       0.690500
      3 C1B          1.8450     0.0000     0.0000 c3         1 072      -0.014600
      4 O1A          3.2240    -0.2590     1.9290 o          1 072      -0.627500
      5 C1C          2.3980     1.2610    -0.6670 c3         1 072      -0.141400
      6 C1D          1.9470     1.3090    -2.1040 c          1 072       0.672100
      7 O1D          1.3350     0.3750    -2.5790 o          1 072      -0.603100
      8 C2A         -0.2070     0.6060     1.7300 c3         1 072       0.210800
      9 C2B         -1.3170    -0.1600     2.4500 c3         1 072      -0.082400
     10 C2C         -2.6580     0.1260     1.7730 c3         1 072      -0.083400
     11 C2D         -3.7690    -0.6410     2.4940 c3         1 072      -0.080400
     12 C2E         -5.1100    -0.3540     1.8170 c3         1 072      -0.081400
     13 C2F         -6.2200    -1.1210     2.5370 c3         1 072      -0.081400
     14 C2G         -7.5610    -0.8360     1.8600 c3         1 072      -0.084400
     15 C2H         -8.6720    -1.6020     2.5800 c3         1 072      -0.092100
     16 N3A          1.1140     0.2940     2.3060 n          1 072      -0.483800
     17 C3B          1.3120     0.3060     3.7570 c3         1 072       0.104000
     18 C3C          1.7380     1.7060     4.2020 c3         1 072      -0.105400
     19 C3D          1.9440     1.7190     5.7180 c3         1 072      -0.075400
     20 C3E          2.3710     3.1190     6.1630 c3         1 072      -0.024100
     21 C3F          2.5740     3.1310     7.6560 ca         1 072      -0.119300
     22 C3G          3.8190     2.8350     8.1840 ca         1 072      -0.156500
     23 C3H          1.5180     3.4450     8.4920 ca         1 072      -0.156500
     24 C3I          4.0110     2.8450     9.5500 ca         1 072      -0.100500
     25 C3J          1.6950     3.4530     9.8600 ca         1 072      -0.100500
     26 C3K          2.9470     3.1550    10.4000 ca         1 072      -0.100600
     27 C3L          3.1470     3.1660    11.8630 c          1 072       0.881200
     28 O3M          2.1190     3.4670    12.6810 o          1 072      -0.838300
     29 O3N          4.2380     2.9070    12.3310 o          1 072      -0.838300
     30 N4A          2.2230     2.3880    -2.8610 n          1 072      -0.480800
     31 C4B          1.6810     2.4890    -4.2180 c3         1 072       0.151300
     32 C4C          0.3400     3.1770    -4.1740 ca         1 072      -0.115300
     33 C4E          0.2640     4.5510    -4.2900 ca         1 072      -0.113500
     34 C4D         -0.8130     2.4310    -4.0230 ca         1 072      -0.113500
     35 C4G         -0.9650     5.1820    -4.2490 ca         1 072      -0.128750
     36 C4F         -2.0420     3.0610    -3.9770 ca         1 072      -0.128750
     37 C4H         -2.1180     4.4360    -4.0930 ca         1 072      -0.124500
     38 C5B          3.0650     3.4620    -2.3270 c3         1 072       0.151300
     39 C5C          4.4900     3.2490    -2.7700 ca         1 072      -0.115300
     40 C5D          4.9050     3.7080    -4.0050 ca         1 072      -0.113500
     41 C5E          5.3820     2.6020    -1.9360 ca         1 072      -0.113500
     42 C5F          6.2130     3.5140    -4.4110 ca         1 072      -0.128750
     43 C5G          6.6880     2.4030    -2.3440 ca         1 072      -0.128750
     44 C5H          7.1040     2.8610    -3.5800 ca         1 072      -0.124500
     45 H1B          2.2310    -0.8990    -0.4650 h1         1 072       0.126700
     46 H1C1         2.0320     2.1360    -0.1450 hc         1 072       0.077700
     47 H1C2         3.4810     1.2440    -0.6290 hc         1 072       0.077700
     48 H2A         -0.3910     1.6740     1.7440 h2         1 072       0.078700
     49 H2B1        -1.1100    -1.2220     2.4060 hc         1 072       0.062200
     50 H2B2        -1.3610     0.1560     3.4850 hc         1 072       0.062200
     51 H2C1        -2.6140    -0.1910     0.7380 hc         1 072       0.049700
     52 H2C2        -2.8650     1.1880     1.8180 hc         1 072       0.049700
     53 H2D1        -3.5620    -1.7030     2.4490 hc         1 072       0.044200
     54 H2D2        -3.8130    -0.3250     3.5290 hc         1 072       0.044200
     55 H2E1        -5.0660    -0.6700     0.7810 hc         1 072       0.041200
     56 H2E2        -5.3170     0.7080     1.8620 hc         1 072       0.041200
     57 H2F1        -6.0120    -2.1830     2.4930 hc         1 072       0.042700
     58 H2F2        -6.2640    -0.8040     3.5720 hc         1 072       0.042700
     59 H2G1        -7.7690     0.2260     1.9030 hc         1 072       0.039200
     60 H2G2        -7.5170    -1.1530     0.8250 hc         1 072       0.039200
     61 H2H1        -8.4650    -2.6640     2.5370 hc         1 072       0.031700
     62 H2H2        -9.6210    -1.3990     2.0990 hc         1 072       0.031700
     63 H2H3        -8.7160    -1.2840     3.6150 hc         1 072       0.031700
     64 H3B1         0.3850     0.0370     4.2500 h1         1 072       0.065700
     65 H3B2         2.0830    -0.4080     4.0230 h1         1 072       0.065700
     66 H3C1         0.9680     2.4190     3.9360 hc         1 072       0.043700
     67 H3C2         2.6650     1.9740     3.7090 hc         1 072       0.043700
     68 H3D1         1.0170     1.4500     6.2110 hc         1 072       0.048700
     69 H3D2         2.7140     1.0050     5.9850 hc         1 072       0.048700
     70 H3E1         1.6010     3.8330     5.8970 hc         1 072       0.035200
     71 H3E2         3.2980     3.3870     5.6700 hc         1 072       0.035200
     72 H3G          4.6430     2.5950     7.5240 ha         1 072       0.104000
     73 H3H          0.5460     3.6760     8.0710 ha         1 072       0.104000
     74 H3I          4.9860     2.6120     9.9620 ha         1 072       0.149000
     75 H3J          0.8660     3.6960    10.5130 ha         1 072       0.149000
     76 H4B1         1.5640     1.4960    -4.6350 h1         1 072       0.063450
     77 H4B2         2.3610     3.0620    -4.8370 h1         1 072       0.063450
     78 H4E          1.1690     5.1350    -4.4120 ha         1 072       0.134250
     79 H4D         -0.7530     1.3530    -3.9330 ha         1 072       0.134250
     80 H4G         -1.0240     6.2600    -4.3400 ha         1 072       0.130500
     81 H4F         -2.9460     2.4760    -3.8570 ha         1 072       0.130500
     82 H4H         -3.0820     4.9300    -4.0590 ha         1 072       0.128000
     83 H5B1         2.7100     4.4160    -2.6970 h1         1 072       0.063450
     84 H5B2         3.0170     3.4530    -1.2450 h1         1 072       0.063450
     85 H5D          4.2070     4.2190    -4.6560 ha         1 072       0.134250
     86 H5E          5.0570     2.2430    -0.9670 ha         1 072       0.134250
     87 H5F          6.5390     3.8730    -5.3800 ha         1 072       0.130500
     88 H5G          7.3880     1.8940    -1.6920 ha         1 072       0.130500
     89 H5H          8.1280     2.7070    -3.8990 ha         1 072       0.128000
@<TRIPOS>BOND
     1     1     3 1   
     2     1     8 1   
     3     2     3 1   
     4     2     4 2   
     5     2    16 1   
     6     3     5 1   
     7     3    45 1   
     8     5     6 1   
     9     5    46 1   
    10     5    47 1   
    11     6     7 2   
    12     6    30 1   
    13     8     9 1   
    14     8    16 1   
    15     8    48 1   
    16     9    10 1   
    17     9    49 1   
    18     9    50 1   
    19    10    11 1   
    20    10    51 1   
    21    10    52 1   
    22    11    12 1   
    23    11    53 1   
    24    11    54 1   
    25    12    13 1   
    26    12    55 1   
    27    12    56 1   
    28    13    14 1   
    29    13    57 1   
    30    13    58 1   
    31    14    15 1   
    32    14    59 1   
    33    14    60 1   
    34    15    61 1   
    35    15    62 1   
    36    15    63 1   
    37    16    17 1   
    38    17    18 1   
    39    17    64 1   
    40    17    65 1   
    41    18    19 1   
    42    18    66 1   
    43    18    67 1   
    44    19    20 1   
    45    19    68 1   
    46    19    69 1   
    47    20    21 1   
    48    20    70 1   
    49    20    71 1   
    50    21    22 ar  
    51    21    23 ar  
    52    22    24 ar  
    53    22    72 1   
    54    23    25 ar  
    55    23    73 1   
    56    24    26 ar  
    57    24    74 1   
    58    25    26 ar  
    59    25    75 1   
    60    26    27 1   
    61    27    28 1   
    62    27    29 1   
    63    30    31 1   
    64    30    38 1   
    65    31    32 1   
    66    31    76 1   
    67    31    77 1   
    68    32    33 ar  
    69    32    34 ar  
    70    33    35 ar  
    71    33    78 1   
    72    34    36 ar  
    73    34    79 1   
    74    35    37 ar  
    75    35    80 1   
    76    36    37 ar  
    77    36    81 1   
    78    37    82 1   
    79    38    39 1   
    80    38    83 1   
    81    38    84 1   
    82    39    40 ar  
    83    39    41 ar  
    84    40    42 ar  
    85    40    85 1   
    86    41    43 ar  
    87    41    86 1   
    88    42    44 ar  
    89    42    87 1   
    90    43    44 ar  
    91    43    88 1   
    92    44    89 1   
@<TRIPOS>SUBSTRUCTURE
     1 072         1 TEMP              0 ****  ****    0 ROOT
