@<TRIPOS>MOLECULE
072
   90    93     1     0     0
SMALL
bcc


@<TRIPOS>ATOM
      1 S1B          0.2080     0.4290     1.1410 ss         1 072      -0.348200
      2 C1A          2.5940    -0.6200     1.6140 c          1 072       0.689500
      3 C1B          1.8440     0.1590     0.5320 c3         1 072      -0.083600
      4 O1A          3.8140    -0.8320     1.5410 o          1 072      -0.598500
      5 C1C          2.5780     1.3880     0.0610 c3         1 072      -0.140400
      6 C1D          2.6040     2.6070     0.9530 c          1 072       0.560100
      7 O1D          3.6160     2.9330     1.5680 o          1 072      -0.444100
      8 C2A          0.3940    -0.6960     2.5940 c3         1 072       0.212800
      9 C2B         -0.6400    -1.8100     2.4330 c3         1 072      -0.083400
     10 C2C         -1.9860    -1.4010     3.0010 c3         1 072      -0.085400
     11 C2D         -2.7870    -0.5140     2.0650 c3         1 072      -0.079400
     12 C2E         -3.4310     0.6660     2.7600 c3         1 072      -0.098400
     13 C2F         -4.4610     0.2500     3.7880 c3         1 072      -0.073400
     14 C2G         -5.1410     1.4440     4.4260 c3         1 072      -0.074400
     15 C2H         -4.2350     2.1950     5.3670 c3         1 072      -0.111100
     16 N3A          1.7750    -1.1300     2.6250 n          1 072      -0.441800
     17 C3B          2.3830    -1.4460     3.9070 c3         1 072       0.079000
     18 C3C          1.6610    -2.5060     4.7420 c3         1 072      -0.087400
     19 C3D          2.2610    -2.5830     6.1370 c3         1 072      -0.072400
     20 C3E          1.4090    -1.9130     7.2090 c3         1 072      -0.036100
     21 C3F          0.9540    -0.5670     6.7710 ca         1 072      -0.083300
     22 C3G          1.8800     0.4760     6.6300 ca         1 072      -0.154500
     23 C3H         -0.3720    -0.3660     6.3660 ca         1 072      -0.154500
     24 C3I          1.5370     1.6180     5.9130 ca         1 072      -0.102500
     25 C3J         -0.7210     0.7880     5.6680 ca         1 072      -0.102500
     26 C3K          0.2580     1.7360     5.3550 ca         1 072      -0.143600
     27 C3L          0.0000     2.7610     4.2980 c          1 072       0.913200
     28 O3M          1.0190     3.3100     3.7400 o          1 072      -0.851800
     29 O3N         -1.1620     3.0160     3.8810 o          1 072      -0.851800
     30 N4A          1.4170     3.5140     1.0770 nx         1 072      -0.599200
     31 C4B          1.8780     4.8930     1.4800 c3         1 072       0.167100
     32 C4C          0.8120     5.9380     1.5050 ca         1 072      -0.136800
     33 C4E          1.0190     7.1460     0.8280 ca         1 072      -0.116750
     34 C4D         -0.3440     5.7610     2.2760 ca         1 072      -0.116750
     35 C4G          0.0660     8.1590     0.8990 ca         1 072      -0.129000
     36 C4F         -1.2970     6.7780     2.3370 ca         1 072      -0.129000
     37 C4H         -1.0970     7.9740     1.6490 ca         1 072      -0.112000
     38 C5B          0.4590     3.4930    -0.0610 c3         1 072       0.167100
     39 C5C          0.9790     3.7160    -1.4460 ca         1 072      -0.136800
     40 C5D          0.6430     2.7830    -2.4390 ca         1 072      -0.116750
     41 C5E          1.6900     4.8640    -1.8040 ca         1 072      -0.116750
     42 C5F          1.0360     2.9870    -3.7600 ca         1 072      -0.129000
     43 C5G          2.0910     5.0620    -3.1250 ca         1 072      -0.129000
     44 C5H          1.7680     4.1230    -4.1050 ca         1 072      -0.112000
     45 H1B          1.7780    -0.5310    -0.3580 h1         1 072       0.115700
     46 H1C1         3.6640     1.0930    -0.0740 hc         1 072       0.110200
     47 H1C2         2.1790     1.6860    -0.9480 hc         1 072       0.110200
     48 H2A          0.1570    -0.0740     3.5090 h2         1 072       0.118700
     49 H2B1        -0.7430    -2.0800     1.3490 hc         1 072       0.061200
     50 H2B2        -0.2870    -2.7340     2.9670 hc         1 072       0.061200
     51 H2C1        -2.5740    -2.3330     3.2150 hc         1 072       0.050700
     52 H2C2        -1.8310    -0.8860     3.9890 hc         1 072       0.050700
     53 H2D1        -2.1180    -0.1150     1.2510 hc         1 072       0.038700
     54 H2D2        -3.5770    -1.1300     1.5600 hc         1 072       0.038700
     55 H2E1        -2.6390     1.3000     3.2510 hc         1 072       0.062700
     56 H2E2        -3.9270     1.3090     1.9840 hc         1 072       0.062700
     57 H2F1        -5.2370    -0.3950     3.2960 hc         1 072       0.030700
     58 H2F2        -3.9690    -0.3700     4.5830 hc         1 072       0.030700
     59 H2G1        -5.5050     2.1380     3.6230 hc         1 072       0.031200
     60 H2G2        -6.0450     1.0850     4.9880 hc         1 072       0.031200
     61 H2H1        -4.7820     3.0570     5.8220 hc         1 072       0.044033
     62 H2H2        -3.3340     2.5920     4.8310 hc         1 072       0.044033
     63 H2H3        -3.8850     1.5280     6.1920 hc         1 072       0.044033
     64 H3B1         3.4320    -1.8060     3.6950 h1         1 072       0.070700
     65 H3B2         2.4520    -0.4970     4.5200 h1         1 072       0.070700
     66 H3C1         0.5680    -2.2580     4.8230 hc         1 072       0.051200
     67 H3C2         1.7460    -3.5010     4.2340 hc         1 072       0.051200
     68 H3D1         3.2810    -2.1140     6.1400 hc         1 072       0.043700
     69 H3D2         2.3930    -3.6600     6.4190 hc         1 072       0.043700
     70 H3E1         2.0130    -1.8310     8.1520 hc         1 072       0.047700
     71 H3E2         0.5220    -2.5630     7.4360 hc         1 072       0.047700
     72 H3G          2.8950     0.3620     7.0390 ha         1 072       0.128000
     73 H3H         -1.1290    -1.1390     6.5620 ha         1 072       0.128000
     74 H3I          2.2740     2.4150     5.7260 ha         1 072       0.156000
     75 H3J         -1.7560     0.9540     5.3190 ha         1 072       0.156000
     76 H4B1         2.2850     4.7750     2.5360 hx         1 072       0.111200
     77 H4B2         2.7200     5.1920     0.7970 hx         1 072       0.111200
     78 H4E          1.9440     7.3120     0.2550 ha         1 072       0.155750
     79 H4D         -0.4930     4.8280     2.8630 ha         1 072       0.155750
     80 H4G          0.2340     9.1080     0.3690 ha         1 072       0.142000
     81 H4F         -2.2040     6.6310     2.9440 ha         1 072       0.142000
     82 H4H         -1.8490     8.7750     1.7020 ha         1 072       0.139000
     83 H5B1        -0.3170     4.2890     0.1600 hx         1 072       0.111200
     84 H5B2        -0.0650     2.4870    -0.0130 hx         1 072       0.111200
     85 H5D          0.0530     1.8890    -2.1800 ha         1 072       0.155750
     86 H5E          1.9160     5.6340    -1.0500 ha         1 072       0.155750
     87 H5F          0.7640     2.2510    -4.5320 ha         1 072       0.142000
     88 H5G          2.6560     5.9670    -3.3940 ha         1 072       0.142000
     89 H5H          2.0830     4.2820    -5.1470 ha         1 072       0.139000
     90 H4A1         0.8720     3.1590     1.9510 hn         1 072       0.545800
@<TRIPOS>BOND
     1     1     3 1   
     2     1     8 1   
     3     2     3 1   
     4     2     4 2   
     5     2    16 1   
     6     3     5 1   
     7     3    45 1   
     8     5     6 1   
     9     5    46 1   
    10     5    47 1   
    11     6     7 2   
    12     6    30 1   
    13     8     9 1   
    14     8    16 1   
    15     8    48 1   
    16     9    10 1   
    17     9    49 1   
    18     9    50 1   
    19    10    11 1   
    20    10    51 1   
    21    10    52 1   
    22    11    12 1   
    23    11    53 1   
    24    11    54 1   
    25    12    13 1   
    26    12    55 1   
    27    12    56 1   
    28    13    14 1   
    29    13    57 1   
    30    13    58 1   
    31    14    15 1   
    32    14    59 1   
    33    14    60 1   
    34    15    61 1   
    35    15    62 1   
    36    15    63 1   
    37    16    17 1   
    38    17    18 1   
    39    17    64 1   
    40    17    65 1   
    41    18    19 1   
    42    18    66 1   
    43    18    67 1   
    44    19    20 1   
    45    19    68 1   
    46    19    69 1   
    47    20    21 1   
    48    20    70 1   
    49    20    71 1   
    50    21    22 ar  
    51    21    23 ar  
    52    22    24 ar  
    53    22    72 1   
    54    23    25 ar  
    55    23    73 1   
    56    24    26 ar  
    57    24    74 1   
    58    25    26 ar  
    59    25    75 1   
    60    26    27 1   
    61    27    28 1   
    62    27    29 1   
    63    30    31 1   
    64    30    38 1   
    65    30    90 1   
    66    31    32 1   
    67    31    76 1   
    68    31    77 1   
    69    32    33 ar  
    70    32    34 ar  
    71    33    35 ar  
    72    33    78 1   
    73    34    36 ar  
    74    34    79 1   
    75    35    37 ar  
    76    35    80 1   
    77    36    37 ar  
    78    36    81 1   
    79    37    82 1   
    80    38    39 1   
    81    38    83 1   
    82    38    84 1   
    83    39    40 ar  
    84    39    41 ar  
    85    40    42 ar  
    86    40    85 1   
    87    41    43 ar  
    88    41    86 1   
    89    42    44 ar  
    90    42    87 1   
    91    43    44 ar  
    92    43    88 1   
    93    44    89 1   
@<TRIPOS>SUBSTRUCTURE
     1 072         1 TEMP              0 ****  ****    0 ROOT
