@<TRIPOS>MOLECULE
molecule
   69    73     1     0     0
SMALL
bcc


@<TRIPOS>ATOM
      1 O71          0.0000     0.0000     0.0000 o          1 073      -0.571000
      2 C65          1.2210     0.0000     0.0000 c          1 073       0.655700
      3 O66          1.9050     0.0000     1.2830 os         1 073      -0.432900
      4 C67          1.2620     0.4460     2.4870 c3         1 073       0.130700
      5 C58          2.0200     0.0600    -1.2870 ca         1 073      -0.148600
      6 C57          1.3730     0.1480    -2.5310 ca         1 073      -0.072000
      7 C56          2.1280     0.2270    -3.7010 ca         1 073      -0.129000
      8 C59          3.4130     0.0550    -1.2220 ca         1 073      -0.072000
      9 C60          4.1740     0.1310    -2.3920 ca         1 073      -0.129000
     10 C55          3.5290     0.2210    -3.6360 ca         1 073      -0.028300
     11 C11          4.3350     0.3370    -4.9080 c3         1 073       0.118000
     12 N12          3.8400     1.5450    -5.6720 na         1 073       0.078900
     13 N23          3.7730     1.5160    -7.0620 nc         1 073      -0.118400
     14 N22          3.3000     2.7800    -7.4000 nd         1 073      -0.258400
     15 C18          3.1270     3.5190    -6.2750 ca         1 073       0.001400
     16 C17          2.6810     4.8300    -6.1070 ca         1 073      -0.063000
     17 C19          3.4660     2.7430    -5.1620 ca         1 073      -0.074200
     18 C20          3.3550     3.3020    -3.8750 ca         1 073      -0.108000
     19 C21          2.9030     4.6130    -3.7100 ca         1 073      -0.119000
     20 C16          2.5620     5.3840    -4.8300 ca         1 073      -0.168000
     21 C13          4.1000    -0.9450    -5.7460 c3         1 073       0.057900
     22 C2           4.6550    -2.2510    -5.2130 ca         1 073      -0.389300
     23 C3           5.9620    -2.6360    -5.5280 ca         1 073      -0.047000
     24 C4           6.4790    -3.8450    -5.0710 ca         1 073      -0.261000
     25 C5           5.6730    -4.7040    -4.3120 ca         1 073       0.028700
     26 C28          6.2350    -6.0000    -3.7990 c3         1 073       0.511700
     27 F30          7.4980    -5.7190    -3.5110 f          1 073      -0.206800
     28 P31          6.1710    -7.4490    -4.9610 p5         1 073       1.033700
     29 O34          4.7290    -7.8240    -5.1680 o          1 073      -0.817833
     30 O33          6.7570    -6.9040    -6.2230 o          1 073      -0.817833
     31 O32          7.0190    -8.4500    -4.2210 o          1 073      -0.817833
     32 F29          5.5980    -6.3470    -2.6850 f          1 073      -0.206800
     33 C6           4.3710    -4.3150    -3.9880 ca         1 073      -0.261000
     34 C1           3.8450    -3.1070    -4.4470 ca         1 073      -0.047000
     35 C37          5.8150     0.6250    -4.5970 c3         1 073      -0.069200
     36 C38          6.6650     0.9030    -5.8370 c2         1 073      -0.134200
     37 C41          7.8630     0.3140    -5.9910 ce         1 073      -0.128200
     38 C43          8.7280     0.5780    -7.1760 ca         1 073      -0.033800
     39 C49          8.2110     1.1480    -8.3530 ca         1 073      -0.121000
     40 C48          9.0390     1.3930    -9.4530 ca         1 073      -0.137500
     41 C47         10.3910     1.0690    -9.3780 ca         1 073      -0.147000
     42 C46         10.9080     0.4950    -8.2120 ca         1 073      -0.137500
     43 C45         10.0790     0.2660    -7.1100 ca         1 073      -0.121000
     44 H671         0.5050    -0.2710     2.7790 h1         1 073       0.044033
     45 H672         0.7990     1.4100     2.3130 h1         1 073       0.044033
     46 H673         1.9980     0.5370     3.2770 h1         1 073       0.044033
     47 H57          0.2910     0.1530    -2.5810 ha         1 073       0.149000
     48 H56          1.6310     0.2790    -4.6620 ha         1 073       0.151000
     49 H59          3.9070    -0.0140    -0.2600 ha         1 073       0.149000
     50 H60          5.2560     0.1270    -2.3390 ha         1 073       0.151000
     51 H17          2.4190     5.4220    -6.9760 ha         1 073       0.136000
     52 H20          3.6170     2.7090    -3.0070 ha         1 073       0.152000
     53 H21          2.8190     5.0350    -2.7160 ha         1 073       0.125000
     54 H16          2.2100     6.4020    -4.7070 ha         1 073       0.120000
     55 H131         3.0310    -1.0670    -5.8670 hc         1 073       0.034200
     56 H132         4.5300    -0.7800    -6.7260 hc         1 073       0.034200
     57 H3           6.5870    -1.9750    -6.1150 ha         1 073       0.076500
     58 H4           7.4700    -4.1590    -5.3740 ha         1 073       0.112000
     59 H6           3.7480    -4.9770    -3.3990 ha         1 073       0.112000
     60 H1           2.8340    -2.8170    -4.1880 ha         1 073       0.076500
     61 H371         5.8680     1.4860    -3.9420 hc         1 073       0.079200
     62 H372         6.2310    -0.2300    -4.0790 hc         1 073       0.079200
     63 H38          6.3040     1.5930    -6.5900 ha         1 073       0.112000
     64 H41          8.2150    -0.3730    -5.2310 ha         1 073       0.156000
     65 H49          7.1580     1.3980    -8.4100 ha         1 073       0.140500
     66 H48          8.6090     1.7120   -10.3940 ha         1 073       0.120500
     67 H47         11.0300     1.2070   -10.2430 ha         1 073       0.115000
     68 H46         11.9560     0.2270    -8.1620 ha         1 073       0.120500
     69 H45         10.6470    -0.1160    -6.2700 ha         1 073       0.140500
@<TRIPOS>BOND
     1     1     2 2   
     2     2     3 1   
     3     2     5 1   
     4     3     4 1   
     5     4    44 1   
     6     4    45 1   
     7     4    46 1   
     8     5     6 ar  
     9     5     8 ar  
    10     6     7 ar  
    11     6    47 1   
    12     7    10 ar  
    13     7    48 1   
    14     8     9 ar  
    15     8    49 1   
    16     9    10 ar  
    17     9    50 1   
    18    10    11 1   
    19    11    12 1   
    20    11    21 1   
    21    11    35 1   
    22    12    13 1   
    23    12    17 1   
    24    13    14 2   
    25    14    15 1   
    26    15    16 ar  
    27    15    17 ar  
    28    16    20 ar  
    29    16    51 1   
    30    17    18 ar  
    31    18    19 ar  
    32    18    52 1   
    33    19    20 ar  
    34    19    53 1   
    35    20    54 1   
    36    21    22 1   
    37    21    55 1   
    38    21    56 1   
    39    22    23 ar  
    40    22    34 ar  
    41    23    24 ar  
    42    23    57 1   
    43    24    25 ar  
    44    24    58 1   
    45    25    26 1   
    46    25    33 ar  
    47    26    27 1   
    48    26    28 1   
    49    26    32 1   
    50    28    29 1   
    51    28    30 1   
    52    28    31 1   
    53    33    34 ar  
    54    33    59 1   
    55    34    60 1   
    56    35    36 1   
    57    35    61 1   
    58    35    62 1   
    59    36    37 2   
    60    36    63 1   
    61    37    38 1   
    62    37    64 1   
    63    38    39 ar  
    64    38    43 ar  
    65    39    40 ar  
    66    39    65 1   
    67    40    41 ar  
    68    40    66 1   
    69    41    42 ar  
    70    41    67 1   
    71    42    43 ar  
    72    42    68 1   
    73    43    69 1   
@<TRIPOS>SUBSTRUCTURE
     1 073         1 TEMP              0 ****  ****    0 ROOT
