@<TRIPOS>MOLECULE
molecule
   69    73     1     0     0
SMALL
bcc


@<TRIPOS>ATOM
      1 O71          0.0000     0.0000     0.0000 o          1 073      -0.564000
      2 C65          1.2150     0.0000     0.0000 c          1 073       0.656700
      3 O66          1.8890     0.0000     1.1670 os         1 073      -0.438900
      4 C67          1.1630     0.0010     2.4240 c3         1 073       0.149700
      5 C58          1.9530    -0.0010    -1.2800 ca         1 073      -0.143600
      6 C57          1.2580    -0.0010    -2.4900 ca         1 073      -0.079000
      7 C56          1.9550    -0.0010    -3.6820 ca         1 073      -0.131000
      8 C59          3.3500     0.0030    -1.2830 ca         1 073      -0.079000
      9 C60          4.0330    -0.0030    -2.4820 ca         1 073      -0.131000
     10 C55          3.3380    -0.0020    -3.6780 ca         1 073      -0.057300
     11 C11          4.0910    -0.0040    -4.9830 c3         1 073       0.139000
     12 N12          3.8040    -1.2410    -5.7120 na         1 073       0.077900
     13 N23          3.2270    -1.3510    -6.9860 nc         1 073      -0.131400
     14 N22          3.1270    -2.5930    -7.3050 nd         1 073      -0.221400
     15 C18          3.6090    -3.3710    -6.3150 ca         1 073       0.020400
     16 C17          3.7310    -4.7580    -6.1620 ca         1 073      -0.048000
     17 C19          4.0540    -2.5240    -5.2850 ca         1 073      -0.053200
     18 C20          4.5980    -3.0670    -4.1270 ca         1 073      -0.130000
     19 C21          4.7070    -4.4340    -4.0000 ca         1 073      -0.098000
     20 C16          4.2730    -5.2710    -5.0200 ca         1 073      -0.163000
     21 C13          5.5930     0.0890    -4.7050 c3         1 073      -0.034100
     22 C2           6.3500     0.0060    -6.0060 ca         1 073      -0.147300
     23 C3           6.7350     1.1630    -6.6560 ca         1 073      -0.147500
     24 C4           7.4290     1.0870    -7.8490 ca         1 073      -0.079000
     25 C5           7.7400    -0.1460    -8.3910 ca         1 073      -0.048300
     26 C28          8.4970    -0.2280    -9.6910 c3         1 073       0.332700
     27 F30          8.0460    -1.3320   -10.4250 f          1 073      -0.265800
     28 P31         10.2770    -0.4140    -9.3480 p5         1 073       0.961700
     29 O34         10.7700     0.7890    -8.3990 o          1 073      -0.866833
     30 O33         11.0320    -0.3790   -10.6210 o          1 073      -0.866833
     31 O32         10.5370    -1.8210    -8.6080 o          1 073      -0.866833
     32 F29          8.2840     0.9400   -10.4300 f          1 073      -0.265800
     33 C6           7.3570    -1.3030    -7.7390 ca         1 073      -0.079000
     34 C1           6.6660    -1.2280    -6.5440 ca         1 073      -0.147500
     35 C37          3.6540     1.1970    -5.8250 c3         1 073      -0.042200
     36 C38          3.8080     2.4600    -5.0170 c2         1 073      -0.173200
     37 C41          4.5840     3.4390    -5.4600 ce         1 073      -0.112200
     38 C43          4.8350     4.6230    -4.6110 ca         1 073      -0.045800
     39 C49          4.2530     4.7170    -3.3470 ca         1 073      -0.117000
     40 C48          4.4960     5.8210    -2.5580 ca         1 073      -0.132500
     41 C47          5.3070     6.8410    -3.0220 ca         1 073      -0.141000
     42 C46          5.8830     6.7600    -4.2770 ca         1 073      -0.132500
     43 C45          5.6520     5.6570    -5.0740 ca         1 073      -0.117000
     44 H671         0.5410     0.8850     2.4810 h1         1 073       0.043033
     45 H672         0.5400    -0.8840     2.4820 h1         1 073       0.043033
     46 H673         1.8670     0.0010     3.2470 h1         1 073       0.043033
     47 H57          0.1750    -0.0010    -2.4950 ha         1 073       0.147000
     48 H56          1.4170    -0.0010    -4.6220 ha         1 073       0.155000
     49 H59          3.8960     0.0030    -0.3470 ha         1 073       0.147000
     50 H60          5.1160    -0.0010    -2.4870 ha         1 073       0.155000
     51 H17          3.3960    -5.4220    -6.9490 ha         1 073       0.137000
     52 H20          4.9380    -2.4180    -3.3290 ha         1 073       0.134000
     53 H21          5.1360    -4.8590    -3.1000 ha         1 073       0.126000
     54 H16          4.3650    -6.3450    -4.9070 ha         1 073       0.124000
     55 H131         5.8920    -0.7290    -4.0600 hc         1 073       0.053200
     56 H132         5.8130     1.0310    -4.2180 hc         1 073       0.053200
     57 H3           6.4910     2.1300    -6.2320 ha         1 073       0.101000
     58 H4           7.7300     1.9940    -8.3590 ha         1 073       0.156500
     59 H6           7.6030    -2.2700    -8.1620 ha         1 073       0.156500
     60 H1           6.3660    -2.1350    -6.0330 ha         1 073       0.101000
     61 H371         2.6170     1.0770    -6.1140 hc         1 073       0.081200
     62 H372         4.2710     1.2590    -6.7140 hc         1 073       0.081200
     63 H38          3.3590     2.5300    -4.0340 ha         1 073       0.120000
     64 H41          5.1070     3.3300    -6.4020 ha         1 073       0.160000
     65 H49          3.6180     3.9180    -2.9820 ha         1 073       0.139000
     66 H48          4.0470     5.8930    -1.5750 ha         1 073       0.121500
     67 H47          5.4930     7.7080    -2.3990 ha         1 073       0.116000
     68 H46          6.5160     7.5620    -4.6350 ha         1 073       0.121500
     69 H45          6.1030     5.5930    -6.0570 ha         1 073       0.139000
@<TRIPOS>BOND
     1     1     2 2   
     2     2     3 1   
     3     2     5 1   
     4     3     4 1   
     5     4    44 1   
     6     4    45 1   
     7     4    46 1   
     8     5     6 ar  
     9     5     8 ar  
    10     6     7 ar  
    11     6    47 1   
    12     7    10 ar  
    13     7    48 1   
    14     8     9 ar  
    15     8    49 1   
    16     9    10 ar  
    17     9    50 1   
    18    10    11 1   
    19    11    12 1   
    20    11    21 1   
    21    11    35 1   
    22    12    13 1   
    23    12    17 1   
    24    13    14 2   
    25    14    15 1   
    26    15    16 ar  
    27    15    17 ar  
    28    16    20 ar  
    29    16    51 1   
    30    17    18 ar  
    31    18    19 ar  
    32    18    52 1   
    33    19    20 ar  
    34    19    53 1   
    35    20    54 1   
    36    21    22 1   
    37    21    55 1   
    38    21    56 1   
    39    22    23 ar  
    40    22    34 ar  
    41    23    24 ar  
    42    23    57 1   
    43    24    25 ar  
    44    24    58 1   
    45    25    26 1   
    46    25    33 ar  
    47    26    27 1   
    48    26    28 1   
    49    26    32 1   
    50    28    29 1   
    51    28    30 1   
    52    28    31 1   
    53    33    34 ar  
    54    33    59 1   
    55    34    60 1   
    56    35    36 1   
    57    35    61 1   
    58    35    62 1   
    59    36    37 2   
    60    36    63 1   
    61    37    38 1   
    62    37    64 1   
    63    38    39 ar  
    64    38    43 ar  
    65    39    40 ar  
    66    39    65 1   
    67    40    41 ar  
    68    40    66 1   
    69    41    42 ar  
    70    41    67 1   
    71    42    43 ar  
    72    42    68 1   
    73    43    69 1   
@<TRIPOS>SUBSTRUCTURE
     1 073         1 TEMP              0 ****  ****    0 ROOT
