@<TRIPOS>MOLECULE
077
   37    38     1     0     0
SMALL
bcc


@<TRIPOS>ATOM
      1 C1           0.0000     0.0000     0.0000 ca         1 077      -0.100000
      2 C2           1.3710     0.0000     2.4110 ca         1 077      -0.107000
      3 C3           1.3800     0.0000     0.0000 ca         1 077      -0.107000
      4 C4          -0.6940     0.0000     1.1970 ca         1 077      -0.116000
      5 C5          -0.0090     0.0010     2.3990 ca         1 077      -0.100000
      6 C6           2.0750     0.0000     1.2080 cp         1 077      -0.008000
      7 C8           3.5590    -0.0010     1.2140 cp         1 077      -0.060000
      8 O1          10.3550    -0.8810     0.0250 oh         1 077      -0.592800
      9 C10          4.2630    -0.0010     0.0120 ca         1 077      -0.098500
     10 C11          5.6330     0.0050     2.4220 ca         1 077      -0.099500
     11 C12          8.3440    -1.4440     1.2410 c3         1 077      -0.054400
     12 C20          9.8740    -1.4440     1.2470 c3         1 077       0.207100
     13 C13          6.3270    -0.0020     1.2250 ca         1 077      -0.061300
     14 C14          4.2530     0.0060     2.4220 ca         1 077      -0.098500
     15 C60          5.6420    -0.0010     0.0230 ca         1 077      -0.099500
     16 C16          7.8340    -0.0010     1.2310 c3         1 077       0.019900
     17 C17         10.3830    -2.8800     1.3830 c3         1 077      -0.154400
     18 C18         11.8850    -2.8710     1.5120 c          1 077       0.990600
     19 O3          12.4860    -1.8220     1.4980 o          1 077      -0.907800
     20 O4          12.5540    -4.0260     1.6440 o          1 077      -0.907800
     21 H1          -0.5410    -0.0000    -0.9390 ha         1 077       0.097000
     22 H3           1.9230    -0.0000    -0.9380 ha         1 077       0.113000
     23 H4          -1.7770     0.0010     1.1930 ha         1 077       0.096000
     24 H2           1.9060     0.0010     3.3530 ha         1 077       0.113000
     25 H5          -0.5580     0.0010     3.3330 ha         1 077       0.097000
     26 H10          3.7280    -0.0010    -0.9300 ha         1 077       0.105000
     27 H14          3.7100     0.0110     3.3590 ha         1 077       0.105000
     28 H20         10.2320    -0.8540     2.0820 h1         1 077       0.008700
     29 H60          6.1910    -0.0040    -0.9110 ha         1 077       0.110500
     30 H11          6.1740     0.0070     3.3610 ha         1 077       0.110500
     31 H121         7.9860    -1.9590     0.3580 hc         1 077       0.018200
     32 H122         7.9790    -1.9500     2.1270 hc         1 077       0.018200
     33 H161         8.1920     0.5140     2.1150 hc         1 077       0.021200
     34 H162         8.1990     0.5050     0.3460 hc         1 077       0.021200
     35 H171        10.1000    -3.4470     0.5050 hc         1 077       0.014200
     36 H172         9.9480    -3.3360     2.2640 hc         1 077       0.014200
     37 HA          10.8770    -0.1190     0.2140 ho         1 077       0.391000
@<TRIPOS>BOND
     1     1     3 ar  
     2     1     4 ar  
     3     1    21 1   
     4     2     5 ar  
     5     2     6 ar  
     6     2    24 1   
     7     3     6 ar  
     8     3    22 1   
     9     4     5 ar  
    10     4    23 1   
    11     5    25 1   
    12     6     7 1   
    13     7     9 ar  
    14     7    14 ar  
    15     8    12 1   
    16     8    37 1   
    17     9    15 ar  
    18     9    26 1   
    19    10    13 ar  
    20    10    14 ar  
    21    10    30 1   
    22    11    12 1   
    23    11    16 1   
    24    11    31 1   
    25    11    32 1   
    26    12    17 1   
    27    12    28 1   
    28    13    15 ar  
    29    13    16 1   
    30    14    27 1   
    31    15    29 1   
    32    16    33 1   
    33    16    34 1   
    34    17    18 1   
    35    17    35 1   
    36    17    36 1   
    37    18    19 1   
    38    18    20 1   
@<TRIPOS>SUBSTRUCTURE
     1 077         1 TEMP              0 ****  ****    0 ROOT
