@<TRIPOS>MOLECULE
077
   37    38     1     0     0
SMALL
bcc


@<TRIPOS>ATOM
      1 C1           0.0430    -0.4520     0.1240 ca         1 077      -0.134000
      2 C2           1.5140     1.0250     1.9760 ca         1 077      -0.125000
      3 C3           1.4170    -0.6530     0.2390 ca         1 077      -0.125000
      4 C4          -0.5990     0.4860     0.9320 ca         1 077      -0.143000
      5 C5           0.1400     1.2230     1.8570 ca         1 077      -0.134000
      6 C6           2.1680     0.0830     1.1680 cp         1 077      -0.011000
      7 C8           3.6090    -0.1280     1.2900 cp         1 077      -0.072000
      8 O1          10.6280     0.3170     2.1990 oh         1 077      -0.641800
      9 C10          4.3980    -0.3450     0.1510 ca         1 077      -0.119500
     10 C11          5.5970    -0.3250     2.6640 ca         1 077      -0.133500
     11 C12          8.6690     0.2020     0.8560 c3         1 077      -0.088400
     12 C20         10.1560    -0.1300     0.9210 c3         1 077       0.157100
     13 C13          6.3840    -0.5440     1.5280 ca         1 077      -0.045300
     14 C14          4.2250    -0.1180     2.5490 ca         1 077      -0.119500
     15 C60          5.7690    -0.5490     0.2680 ca         1 077      -0.133500
     16 C16          7.8460    -0.7910     1.6520 c3         1 077      -0.040100
     17 C17         10.9150     0.5250    -0.2210 c3         1 077      -0.231400
     18 C18         10.6630    -0.2140    -1.5500 c          1 077       0.911600
     19 O3           9.5190    -0.1190    -2.0840 o          1 077      -0.845300
     20 O4          11.6210    -0.8720    -2.0450 o          1 077      -0.845300
     21 H1          -0.5350    -1.0360    -0.6060 ha         1 077       0.123500
     22 H3           1.9200    -1.3970    -0.3980 ha         1 077       0.136500
     23 H4          -1.6820     0.6440     0.8400 ha         1 077       0.121000
     24 H2           2.0950     1.6150     2.7000 ha         1 077       0.136500
     25 H5          -0.3610     1.9670     2.4930 ha         1 077       0.123500
     26 H10          3.9310    -0.3420    -0.8450 ha         1 077       0.124500
     27 H14          3.6190     0.0470     3.4520 ha         1 077       0.124500
     28 H20         10.3070    -1.2470     0.8750 h1         1 077       0.034700
     29 H60          6.3850    -0.7080    -0.6340 ha         1 077       0.147500
     30 H11          6.0680    -0.3140     3.6590 ha         1 077       0.147500
     31 H121         8.3710     0.1820    -0.2310 hc         1 077       0.076200
     32 H122         8.5030     1.2360     1.2510 hc         1 077       0.076200
     33 H161         8.1610    -0.7490     2.7290 hc         1 077       0.048700
     34 H162         8.0630    -1.8300     1.2800 hc         1 077       0.048700
     35 H171        10.5930     1.5900    -0.3310 hc         1 077       0.029700
     36 H172        12.0120     0.5090    -0.0020 hc         1 077       0.029700
     37 HA          11.5870     0.3620     2.1370 ho         1 077       0.389000
@<TRIPOS>BOND
     1     1     3 ar  
     2     1     4 ar  
     3     1    21 1   
     4     2     5 ar  
     5     2     6 ar  
     6     2    24 1   
     7     3     6 ar  
     8     3    22 1   
     9     4     5 ar  
    10     4    23 1   
    11     5    25 1   
    12     6     7 1   
    13     7     9 ar  
    14     7    14 ar  
    15     8    12 1   
    16     8    37 1   
    17     9    15 ar  
    18     9    26 1   
    19    10    13 ar  
    20    10    14 ar  
    21    10    30 1   
    22    11    12 1   
    23    11    16 1   
    24    11    31 1   
    25    11    32 1   
    26    12    17 1   
    27    12    28 1   
    28    13    15 ar  
    29    13    16 1   
    30    14    27 1   
    31    15    29 1   
    32    16    33 1   
    33    16    34 1   
    34    17    18 1   
    35    17    35 1   
    36    17    36 1   
    37    18    19 1   
    38    18    20 1   
@<TRIPOS>SUBSTRUCTURE
     1 077         1 TEMP              0 ****  ****    0 ROOT
