@<TRIPOS>MOLECULE
078
   48    49     1     0     0
SMALL
bcc


@<TRIPOS>ATOM
      1 C27         -0.8610    -1.8220     0.9710 ca         1 078      -0.156000
      2 C28          0.3510    -2.2310     1.5260 ca         1 078      -0.105000
      3 C29          1.1920    -1.2980     2.1370 ca         1 078      -0.095000
      4 C30          0.8180     0.0450     2.1880 ca         1 078      -0.105000
      5 C31         -0.3940     0.4560     1.6340 ca         1 078      -0.156000
      6 C26         -1.2460    -0.4760     1.0230 ca         1 078      -0.168300
      7 C25         -2.4830    -0.0030     0.3460 c3         1 078      -0.095100
      8 C24         -3.7780    -0.6540     0.8170 c3         1 078       0.149100
      9 O5          -4.1350    -1.8200     0.1090 oh         1 078      -0.596800
     10 C23         -3.7560    -1.0820     2.3270 c3         1 078       0.055500
     11 N3          -3.3060     0.0430     3.1980 nz         1 078      -0.832600
     12 C22         -5.1670    -1.6070     2.6950 c3         1 078       0.098100
     13 O4          -6.0140    -0.5190     3.0280 oh         1 078      -0.633800
     14 C14         -5.1580    -2.5530     3.9240 c3         1 078       0.117500
     15 C15         -4.3750    -3.8440     3.6190 c3         1 078      -0.049100
     16 C16         -4.6770    -4.9170     4.6030 ca         1 078      -0.194300
     17 C17         -3.9390    -5.0240     5.7870 ca         1 078      -0.133000
     18 C18         -4.1900    -6.0680     6.6770 ca         1 078      -0.106000
     19 C19         -5.1760    -7.0130     6.3880 ca         1 078      -0.078000
     20 C20         -5.9120    -6.9130     5.2040 ca         1 078      -0.106000
     21 C21         -5.6650    -5.8710     4.3140 ca         1 078      -0.133000
     22 N2          -6.5620    -2.8790     4.3500 nz         1 078      -0.832600
     23 H1          -1.4950    -2.5590     0.4540 ha         1 078       0.137000
     24 H2           0.6580    -3.2870     1.4580 ha         1 078       0.166500
     25 H3           2.1610    -1.6190     2.5540 ha         1 078       0.172000
     26 H4           1.4940     0.7890     2.6430 ha         1 078       0.166500
     27 H5          -0.6430     1.5300     1.6170 ha         1 078       0.137000
     28 H6          -2.3810    -0.1850    -0.7640 hc         1 078       0.099200
     29 H7          -2.5820     1.1120     0.4630 hc         1 078       0.099200
     30 H8          -4.6390     0.0630     0.6680 h1         1 078       0.080700
     31 H9          -3.3860    -2.1140    -0.4320 ho         1 078       0.454000
     32 H10         -3.0010    -1.9210     2.4270 hx         1 078       0.138700
     33 H11         -3.2250    -0.2670     4.1690 hn         1 078       0.472133
     34 H12         -2.3830     0.3810     2.8680 hn         1 078       0.472133
     35 H14         -5.5490    -2.1730     1.7910 h1         1 078       0.135700
     36 H15         -6.4690    -0.2250     2.2230 ho         1 078       0.467000
     37 H16         -4.6890    -2.0240     4.8060 hx         1 078       0.096700
     38 H17         -4.6130    -4.1940     2.5770 hc         1 078       0.089700
     39 H18         -3.2800    -3.5980     3.6540 hc         1 078       0.089700
     40 H19         -3.1390    -4.3010     6.0100 ha         1 078       0.133000
     41 H20         -3.5970    -6.1550     7.6030 ha         1 078       0.170000
     42 H21         -5.3640    -7.8470     7.0860 ha         1 078       0.175000
     43 H22         -6.6770    -7.6720     4.9660 ha         1 078       0.170000
     44 H23         -6.2130    -5.8310     3.3600 ha         1 078       0.133000
     45 H24         -7.0900    -2.0130     4.5120 hn         1 078       0.476467
     46 H25         -7.0280    -3.4360     3.6240 hn         1 078       0.476467
     47 H33         -3.9900     0.8080     3.1530 hn         1 078       0.472133
     48 H231        -6.5240    -3.4470     5.2110 hn         1 078       0.476467
@<TRIPOS>BOND
     1     1     2 ar  
     2     1     6 ar  
     3     1    23 1   
     4     2     3 ar  
     5     2    24 1   
     6     3     4 ar  
     7     3    25 1   
     8     4     5 ar  
     9     4    26 1   
    10     5     6 ar  
    11     5    27 1   
    12     6     7 1   
    13     7     8 1   
    14     7    28 1   
    15     7    29 1   
    16     8     9 1   
    17     8    10 1   
    18     8    30 1   
    19     9    31 1   
    20    10    11 1   
    21    10    12 1   
    22    10    32 1   
    23    11    33 1   
    24    11    34 1   
    25    11    47 1   
    26    12    13 1   
    27    12    14 1   
    28    12    35 1   
    29    13    36 1   
    30    14    15 1   
    31    14    22 1   
    32    14    37 1   
    33    15    16 1   
    34    15    38 1   
    35    15    39 1   
    36    16    17 ar  
    37    16    21 ar  
    38    17    18 ar  
    39    17    40 1   
    40    18    19 ar  
    41    18    41 1   
    42    19    20 ar  
    43    19    42 1   
    44    20    21 ar  
    45    20    43 1   
    46    21    44 1   
    47    22    45 1   
    48    22    46 1   
    49    22    48 1   
@<TRIPOS>SUBSTRUCTURE
     1 078         1 TEMP              0 ****  ****    0 ROOT
