@<TRIPOS>MOLECULE
078
   48    49     1     0     0
SMALL
bcc


@<TRIPOS>ATOM
      1 C27          0.0000     0.0000     0.0000 ca         1 078      -0.088000
      2 C28          1.3810     0.0000     0.0000 ca         1 078      -0.077500
      3 C29          2.0730     0.0000     1.1970 ca         1 078      -0.054000
      4 C30          1.3820    -0.0000     2.3940 ca         1 078      -0.077500
      5 C31          0.0000     0.0010     2.3940 ca         1 078      -0.088000
      6 C26         -0.6910     0.0010     1.1970 ca         1 078      -0.156300
      7 C25         -2.1980     0.0060     1.1980 c3         1 078       0.031900
      8 C24         -2.7150    -1.4340     1.1950 c3         1 078       0.182100
      9 O5          -2.3390    -2.0770     2.4140 oh         1 078      -0.537800
     10 C23         -4.2390    -1.4290     1.0700 c3         1 078      -0.123500
     11 N3          -4.6250    -0.7670    -0.1840 nz         1 078      -0.007600
     12 C22         -4.7560    -2.8690     1.0660 c3         1 078       0.160100
     13 O4          -4.2040    -3.5700    -0.0510 oh         1 078      -0.614800
     14 C14         -6.2820    -2.8630     0.9620 c3         1 078      -0.095500
     15 C15         -6.8020    -4.3010     1.0260 c3         1 078       0.045900
     16 C16         -8.3100    -4.2890     1.0470 ca         1 078      -0.202300
     17 C17         -8.9830    -4.2300     2.2530 ca         1 078      -0.104000
     18 C18        -10.3650    -4.2200     2.2730 ca         1 078      -0.059000
     19 C19        -11.0740    -4.2660     1.0870 ca         1 078      -0.041000
     20 C20        -10.4000    -4.3240    -0.1190 ca         1 078      -0.059000
     21 C21         -9.0180    -4.3300    -0.1390 ca         1 078      -0.104000
     22 N2          -6.6840    -2.2530    -0.3120 nz         1 078      -0.035600
     23 H1          -0.5410     0.0450    -0.9370 ha         1 078       0.100500
     24 H2           1.9230     0.0020    -0.9380 ha         1 078       0.123000
     25 H3           3.1560     0.0080     1.1970 ha         1 078       0.125000
     26 H4           1.9240     0.0070     3.3320 ha         1 078       0.123000
     27 H5          -0.5410     0.0110     3.3330 ha         1 078       0.100500
     28 H6          -2.5570     0.5160     2.0840 hc         1 078       0.019700
     29 H7          -2.5580     0.5210     0.3150 hc         1 078       0.019700
     30 H8          -2.2850    -1.9700     0.3570 h1         1 078       0.037700
     31 H9          -1.8260    -2.8440     2.2190 ho         1 078       0.425000
     32 H10         -4.6680    -0.8940     1.9080 hx         1 078       0.121700
     33 H11         -4.0070    -0.0000    -0.3610 hn         1 078       0.243800
     34 H12         -5.5640    -0.4280    -0.1070 hn         1 078       0.243800
     35 H14         -4.4580    -3.3610     1.9840 h1         1 078       0.107700
     36 H15         -3.7860    -4.3610     0.2500 ho         1 078       0.477000
     37 H16         -6.6980    -2.2920     1.7830 hx         1 078       0.113700
     38 H17         -6.4580    -4.8490     0.1570 hc         1 078       0.062700
     39 H18         -6.4320    -4.7800     1.9240 hc         1 078       0.062700
     40 H19         -8.4280    -4.1940     3.1830 ha         1 078       0.103500
     41 H20        -10.8930    -4.1750     3.2170 ha         1 078       0.131500
     42 H21        -12.1570    -4.2600     1.1030 ha         1 078       0.135000
     43 H22        -10.9550    -4.3580    -1.0480 ha         1 078       0.131500
     44 H23         -8.4910    -4.3750    -1.0840 ha         1 078       0.103500
     45 H24         -7.5570    -2.6430    -0.6080 hn         1 078       0.248800
     46 H25         -6.7840    -1.2650    -0.1920 hn         1 078       0.248800
     47 H33         -4.6070    -1.4320    -0.9320 hn         1 078       0.243800
     48 H231        -6.0040    -2.4680    -1.0140 hn         1 078       0.248800
@<TRIPOS>BOND
     1     1     2 ar  
     2     1     6 ar  
     3     1    23 1   
     4     2     3 ar  
     5     2    24 1   
     6     3     4 ar  
     7     3    25 1   
     8     4     5 ar  
     9     4    26 1   
    10     5     6 ar  
    11     5    27 1   
    12     6     7 1   
    13     7     8 1   
    14     7    28 1   
    15     7    29 1   
    16     8     9 1   
    17     8    10 1   
    18     8    30 1   
    19     9    31 1   
    20    10    11 1   
    21    10    12 1   
    22    10    32 1   
    23    11    33 1   
    24    11    34 1   
    25    11    47 1   
    26    12    13 1   
    27    12    14 1   
    28    12    35 1   
    29    13    36 1   
    30    14    15 1   
    31    14    22 1   
    32    14    37 1   
    33    15    16 1   
    34    15    38 1   
    35    15    39 1   
    36    16    17 ar  
    37    16    21 ar  
    38    17    18 ar  
    39    17    40 1   
    40    18    19 ar  
    41    18    41 1   
    42    19    20 ar  
    43    19    42 1   
    44    20    21 ar  
    45    20    43 1   
    46    21    44 1   
    47    22    45 1   
    48    22    46 1   
    49    22    48 1   
@<TRIPOS>SUBSTRUCTURE
     1 078         1 TEMP              0 ****  ****    0 ROOT
