@<TRIPOS>MOLECULE
molecule
   48    49     1     0     0
SMALL
bcc


@<TRIPOS>ATOM
      1 C27          0.0000     0.0000     0.0000 ca         1 078      -0.115000
      2 C28          1.3810     0.0000     0.0000 ca         1 078      -0.110000
      3 C29          2.0730     0.0000     1.1970 ca         1 078      -0.088000
      4 C30          1.3820    -0.0000     2.3940 ca         1 078      -0.110000
      5 C31          0.0000     0.0010     2.3940 ca         1 078      -0.115000
      6 C26         -0.6910     0.0010     1.1970 ca         1 078      -0.140300
      7 C25         -2.1980     0.0060     1.1980 c3         1 078      -0.036100
      8 C24         -2.7150    -1.4340     1.1950 c3         1 078       0.133100
      9 O5          -2.3390    -2.0770     2.4140 oh         1 078      -0.558800
     10 C23         -4.2390    -1.4290     1.0700 c3         1 078       0.057500
     11 N3          -4.6250    -0.7670    -0.1840 nz         1 078      -0.831600
     12 C22         -4.7560    -2.8690     1.0660 c3         1 078       0.096100
     13 O4          -4.2040    -3.5700    -0.0510 oh         1 078      -0.631800
     14 C14         -6.2820    -2.8630     0.9620 c3         1 078       0.076500
     15 C15         -6.8020    -4.3010     1.0260 c3         1 078      -0.044100
     16 C16         -8.3100    -4.2890     1.0470 ca         1 078      -0.176300
     17 C17         -8.9830    -4.2300     2.2530 ca         1 078      -0.138000
     18 C18        -10.3650    -4.2200     2.2730 ca         1 078      -0.094000
     19 C19        -11.0740    -4.2660     1.0870 ca         1 078      -0.080000
     20 C20        -10.4000    -4.3240    -0.1190 ca         1 078      -0.094000
     21 C21         -9.0180    -4.3300    -0.1390 ca         1 078      -0.138000
     22 N2          -6.6840    -2.2530    -0.3120 nz         1 078      -0.839600
     23 H1          -0.5410     0.0450    -0.9370 ha         1 078       0.126500
     24 H2           1.9230     0.0020    -0.9380 ha         1 078       0.155500
     25 H3           3.1560     0.0080     1.1970 ha         1 078       0.160000
     26 H4           1.9240     0.0070     3.3320 ha         1 078       0.155500
     27 H5          -0.5410     0.0110     3.3330 ha         1 078       0.126500
     28 H6          -2.5570     0.5160     2.0840 hc         1 078       0.050700
     29 H7          -2.5580     0.5210     0.3150 hc         1 078       0.050700
     30 H8          -2.2850    -1.9700     0.3570 h1         1 078       0.074700
     31 H9          -1.8260    -2.8440     2.2190 ho         1 078       0.441000
     32 H10         -4.6680    -0.8940     1.9080 hx         1 078       0.145700
     33 H11         -4.0070    -0.0000    -0.3610 hn         1 078       0.458467
     34 H12         -5.5640    -0.4280    -0.1070 hn         1 078       0.458467
     35 H14         -4.4580    -3.3610     1.9840 h1         1 078       0.152700
     36 H15         -3.7860    -4.3610     0.2500 ho         1 078       0.482000
     37 H16         -6.6980    -2.2920     1.7830 hx         1 078       0.136700
     38 H17         -6.4580    -4.8490     0.1570 hc         1 078       0.100700
     39 H18         -6.4320    -4.7800     1.9240 hc         1 078       0.100700
     40 H19         -8.4280    -4.1940     3.1830 ha         1 078       0.127500
     41 H20        -10.8930    -4.1750     3.2170 ha         1 078       0.166000
     42 H21        -12.1570    -4.2600     1.1030 ha         1 078       0.172000
     43 H22        -10.9550    -4.3580    -1.0480 ha         1 078       0.166000
     44 H23         -8.4910    -4.3750    -1.0840 ha         1 078       0.127500
     45 H24         -7.5570    -2.6430    -0.6080 hn         1 078       0.459800
     46 H25         -6.7840    -1.2650    -0.1920 hn         1 078       0.459800
     47 H33         -4.6070    -1.4320    -0.9320 hn         1 078       0.458467
     48 H231        -6.0040    -2.4680    -1.0140 hn         1 078       0.459800
@<TRIPOS>BOND
     1     3     2 ar  
     2     3     4 ar  
     3     2     1 ar  
     4     4     5 ar  
     5     1     6 ar  
     6     5     6 ar  
     7     6     7 1   
     8     9     8 1   
     9     7     8 1   
    10     8    10 1   
    11    10    11 1   
    12    10    12 1   
    13    12    14 1   
    14    12    13 1   
    15    14    15 1   
    16    14    22 1   
    17    17    18 ar  
    18    17    16 ar  
    19    15    16 1   
    20    18    19 ar  
    21    16    21 ar  
    22    19    20 ar  
    23    21    20 ar  
    24     1    23 1   
    25     2    24 1   
    26     3    25 1   
    27     4    26 1   
    28     5    27 1   
    29     7    28 1   
    30     7    29 1   
    31     8    30 1   
    32     9    31 1   
    33    10    32 1   
    34    11    33 1   
    35    11    34 1   
    36    12    35 1   
    37    13    36 1   
    38    14    37 1   
    39    15    38 1   
    40    15    39 1   
    41    17    40 1   
    42    18    41 1   
    43    19    42 1   
    44    20    43 1   
    45    21    44 1   
    46    22    45 1   
    47    22    46 1   
    48    47    11 1   
    49    48    22 1   
@<TRIPOS>SUBSTRUCTURE
     1 078         1 TEMP              0 ****  ****    0 ROOT
