@<TRIPOS>MOLECULE
07B
   32    32     1     0     0
SMALL
bcc


@<TRIPOS>ATOM
      1 CBK          0.0000     0.0000     0.0000 c3         1 07B       0.176600
      2 CAR          1.5300     0.0000     0.0000 c3         1 07B      -0.033400
      3 CBO          2.0390     0.0000     1.4430 c3         1 07B      -0.077700
      4 CBA          3.5470     0.0000     1.4430 c          1 07B       0.710100
      5 OAE          4.1510    -0.9060     1.9660 o          1 07B      -0.586000
      6 OAT          4.2180     1.0060     0.8610 os         1 07B      -0.416900
      7 CAB          5.6680     0.9400     0.9000 c3         1 07B       0.269200
      8 CBN          1.5290    -1.2500     2.1630 c3         1 07B      -0.077700
      9 CAZ          2.0320    -1.2500     3.5850 c          1 07B       0.710100
     10 OAD          2.7260    -0.3430     3.9800 o          1 07B      -0.586000
     11 OAS          1.7070    -2.2560     4.4120 os         1 07B      -0.416900
     12 CAA          2.2260    -2.1900     5.7660 c3         1 07B       0.269200
     13 CAQ         -0.0000    -1.2500     2.1630 c3         1 07B      -0.033400
     14 CBJ         -0.5100    -1.2500     0.7210 c3         1 07B       0.176600
     15 OAV         -0.0340    -2.4160     0.0480 oh         1 07B      -0.581800
     16 OX0         -0.4760     1.1670     0.6730 oh         1 07B      -0.581800
     17 HBK         -0.3590    -0.0040    -1.0220 h1         1 07B       0.003700
     18 HAR1         1.8900    -0.8860    -0.5090 hc         1 07B       0.035200
     19 HAR2         1.8900     0.8860    -0.5090 hc         1 07B       0.035200
     20 HBJ         -1.5930    -1.2450     0.7230 h1         1 07B       0.003700
     21 HX0         -0.9760     1.6940     0.0720 ho         1 07B       0.392000
     22 HBO          1.6740     0.8830     1.9520 hc         1 07B       0.073700
     23 HBN          1.8880    -2.1330     1.6490 hc         1 07B       0.073700
     24 HAB1         6.0000     0.8860     1.9300 h1         1 07B       0.000033
     25 HAB2         6.0040     0.0590     0.3660 h1         1 07B       0.000033
     26 HAB3         6.0830     1.8250     0.4330 h1         1 07B       0.000033
     27 HAQ1        -0.3600    -2.1360     2.6720 hc         1 07B       0.035200
     28 HAQ2        -0.3600    -0.3630     2.6720 hc         1 07B       0.035200
     29 HAA1         1.9230    -3.0750     6.3120 h1         1 07B       0.000033
     30 HAA2         1.8340    -1.3090     6.2600 h1         1 07B       0.000033
     31 HAA3         3.3070    -2.1360     5.7360 h1         1 07B       0.000033
     32 HAV         -0.7670    -2.9440    -0.2230 ho         1 07B       0.392000
@<TRIPOS>BOND
     1     1     2 1   
     2     1    14 1   
     3     1    16 1   
     4     1    17 1   
     5     2     3 1   
     6     2    18 1   
     7     2    19 1   
     8     3     4 1   
     9     3     8 1   
    10     3    22 1   
    11     4     5 2   
    12     4     6 1   
    13     6     7 1   
    14     7    24 1   
    15     7    25 1   
    16     7    26 1   
    17     8     9 1   
    18     8    13 1   
    19     8    23 1   
    20     9    10 2   
    21     9    11 1   
    22    11    12 1   
    23    12    29 1   
    24    12    30 1   
    25    12    31 1   
    26    13    14 1   
    27    13    27 1   
    28    13    28 1   
    29    14    15 1   
    30    14    20 1   
    31    15    32 1   
    32    16    21 1   
@<TRIPOS>SUBSTRUCTURE
     1 07B         1 TEMP              0 ****  ****    0 ROOT
