@<TRIPOS>MOLECULE
07B
   32    32     1     0     0
SMALL
bcc


@<TRIPOS>ATOM
      1 CBK         -0.1930     0.3490     0.1040 c3         1 07B       0.146100
      2 CAR          1.3170     0.1670     0.1690 c3         1 07B      -0.108400
      3 CBO          1.7830    -0.2910     1.5440 c3         1 07B      -0.095700
      4 CBA          3.2830    -0.4450     1.5210 c          1 07B       0.624100
      5 OAE          4.1210     0.2640     2.0800 o          1 07B      -0.531000
      6 OAT          3.7230    -1.4900     0.7560 os         1 07B      -0.435900
      7 CAB          5.1360    -1.6960     0.7030 c3         1 07B       0.125700
      8 CBN          1.0820    -1.5910     1.9350 c3         1 07B      -0.095700
      9 CAZ          1.4940    -2.0650     3.3050 c          1 07B       0.624100
     10 OAD          1.9020    -3.1830     3.6230 o          1 07B      -0.531000
     11 OAS          1.3580    -1.1200     4.2840 os         1 07B      -0.435900
     12 CAA          1.7450    -1.5040     5.6050 c3         1 07B       0.125700
     13 CAQ         -0.4290    -1.4000     1.9170 c3         1 07B      -0.108400
     14 CBJ         -0.9330    -0.9210     0.5640 c3         1 07B       0.146100
     15 OAV         -0.7290    -1.8810    -0.4650 oh         1 07B      -0.600800
     16 OX0         -0.6520     1.3930     0.9520 oh         1 07B      -0.600800
     17 HBK         -0.4880     0.5760    -0.9610 h1         1 07B       0.058700
     18 HAR1         1.6090    -0.6030    -0.5960 hc         1 07B       0.070700
     19 HAR2         1.8240     1.1320    -0.0900 hc         1 07B       0.070700
     20 HBJ         -2.0340    -0.6900     0.6440 h1         1 07B       0.058700
     21 HX0         -0.1480     2.1820     0.7180 ho         1 07B       0.409000
     22 HBO          1.5360     0.5000     2.3110 hc         1 07B       0.107700
     23 HBN          1.3700    -2.3960     1.1970 hc         1 07B       0.107700
     24 HAB1         5.2450    -2.5940     0.0470 h1         1 07B       0.053033
     25 HAB2         5.6340    -0.8000     0.2610 h1         1 07B       0.053033
     26 HAB3         5.5310    -1.8870     1.7290 h1         1 07B       0.053033
     27 HAQ1        -0.9260    -2.3690     2.1830 hc         1 07B       0.070700
     28 HAQ2        -0.7140    -0.6330     2.6870 hc         1 07B       0.070700
     29 HAA1         2.8220    -1.7970     5.6160 h1         1 07B       0.053033
     30 HAA2         1.1130    -2.3560     5.9530 h1         1 07B       0.053033
     31 HAA3         1.5630    -0.5830     6.2100 h1         1 07B       0.053033
     32 HAV         -1.1330    -2.7030    -0.1600 ho         1 07B       0.409000
@<TRIPOS>BOND
     1     1     2 1   
     2     1    14 1   
     3     1    16 1   
     4     1    17 1   
     5     2     3 1   
     6     2    18 1   
     7     2    19 1   
     8     3     4 1   
     9     3     8 1   
    10     3    22 1   
    11     4     5 2   
    12     4     6 1   
    13     6     7 1   
    14     7    24 1   
    15     7    25 1   
    16     7    26 1   
    17     8     9 1   
    18     8    13 1   
    19     8    23 1   
    20     9    10 2   
    21     9    11 1   
    22    11    12 1   
    23    12    29 1   
    24    12    30 1   
    25    12    31 1   
    26    13    14 1   
    27    13    27 1   
    28    13    28 1   
    29    14    15 1   
    30    14    20 1   
    31    15    32 1   
    32    16    21 1   
@<TRIPOS>SUBSTRUCTURE
     1 07B         1 TEMP              0 ****  ****    0 ROOT
