@<TRIPOS>MOLECULE
07E
   33    33     1     0     0
SMALL
bcc


@<TRIPOS>ATOM
      1 C1           0.0000     0.0000     0.0000 c3         1 07E       0.383900
      2 C2           1.5300     0.0000     0.0000 c3         1 07E       0.143100
      3 C3           2.0340     0.0000     1.4470 c3         1 07E       0.166100
      4 C4           1.4520     1.2140     2.1780 c3         1 07E       0.132100
      5 C5          -0.0760     1.1670     2.0940 c3         1 07E       0.201400
      6 O1          -0.4770     0.0570    -1.3460 os         1 07E      -0.397600
      7 O2           2.0080    -1.1670    -0.6720 oh         1 07E      -0.575800
      8 O3           3.4610     0.0740     1.4570 oh         1 07E      -0.580800
      9 O4           1.8560     1.1840     3.5490 oh         1 07E      -0.579800
     10 O5          -0.4760     1.1380     0.7220 os         1 07E      -0.427600
     11 C1'         -1.8970    -0.0500    -1.4640 c3         1 07E       0.209400
     12 C2'         -2.2930     0.0230    -2.9420 c3         1 07E      -0.041400
     13 C3'         -3.8130    -0.0930    -3.0680 c3         1 07E       0.193100
     14 C4'         -4.1990    -0.1460    -4.5480 c3         1 07E      -0.027100
     15 O'          -4.4290     1.0410    -2.4550 oh         1 07E      -0.586800
     16 H1          -0.3590    -0.9040     0.4770 h2         1 07E       0.002700
     17 H2           1.8900     0.8880    -0.5060 h1         1 07E       0.029700
     18 H3           1.7100    -0.9080     1.9410 h1         1 07E       0.021700
     19 H4           1.8110     2.1220     1.7090 h1         1 07E       0.023700
     20 H5          -0.4370     0.2760     2.5930 h1         1 07E       0.016700
     21 H6          -0.4900     2.0470     2.5710 h1         1 07E       0.016700
     22 H7           2.5680    -0.9110    -1.3850 ho         1 07E       0.401000
     23 H8           3.8120    -0.6830     1.8970 ho         1 07E       0.400000
     24 H9           2.1070     2.0510     3.8210 ho         1 07E       0.396000
     25 H10         -2.3680     0.7620    -0.9240 h1         1 07E       0.002700
     26 H11         -2.2240    -0.9970    -1.0490 h1         1 07E       0.002700
     27 H12         -1.9670     0.9690    -3.3560 hc         1 07E       0.030700
     28 H13         -1.8220    -0.7900    -3.4820 hc         1 07E       0.030700
     29 H14         -4.1490    -0.9970    -2.5750 h1         1 07E      -0.004300
     30 H15         -3.7390    -1.0100    -5.0110 hc         1 07E       0.009367
     31 H16         -5.2760    -0.2180    -4.6380 hc         1 07E       0.009367
     32 H17         -3.8550     0.7550    -5.0430 hc         1 07E       0.009367
     33 H18         -5.2960     0.8100    -2.1660 ho         1 07E       0.388000
@<TRIPOS>BOND
     1     1     2 1   
     2     1     6 1   
     3     1    10 1   
     4     1    16 1   
     5     2     3 1   
     6     2     7 1   
     7     2    17 1   
     8     3     4 1   
     9     3     8 1   
    10     3    18 1   
    11     4     5 1   
    12     4     9 1   
    13     4    19 1   
    14     5    10 1   
    15     5    20 1   
    16     5    21 1   
    17     6    11 1   
    18     7    22 1   
    19     8    23 1   
    20     9    24 1   
    21    11    12 1   
    22    11    25 1   
    23    11    26 1   
    24    12    13 1   
    25    12    27 1   
    26    12    28 1   
    27    13    14 1   
    28    13    15 1   
    29    13    29 1   
    30    14    30 1   
    31    14    31 1   
    32    14    32 1   
    33    15    33 1   
@<TRIPOS>SUBSTRUCTURE
     1 07E         1 TEMP              0 ****  ****    0 ROOT
