@<TRIPOS>MOLECULE
07H
   54    58     1     0     0
SMALL
bcc


@<TRIPOS>ATOM
      1 C1          -0.0800    -0.1030     0.2030 ca         1 07H      -0.134800
      2 C4           1.3060    -0.1840     0.3780 ca         1 07H      -0.080000
      3 C8           1.8490    -0.2370     1.6580 ca         1 07H      -0.166000
      4 C10          1.0150    -0.2110     2.7790 ca         1 07H      -0.092000
      5 C6          -0.3660    -0.1270     2.6350 ca         1 07H      -0.159000
      6 C2          -0.9100    -0.0700     1.3410 ca         1 07H       0.144100
      7 O5          -2.2850    -0.0410     1.2580 os         1 07H      -0.328900
      8 C9          -2.8640     0.3770     0.0130 c3         1 07H       0.176600
      9 C7          -2.0290     0.1580    -1.2010 c2         1 07H      -0.162400
     10 C3          -0.7040    -0.0580    -1.1030 ce         1 07H      -0.081200
     11 C26         -2.7220     0.2910    -2.5220 c3         1 07H       0.214000
     12 N23         -3.8420    -0.6240    -2.7040 n3         1 07H      -0.730600
     13 C22         -4.5770    -0.3330    -3.9290 c3         1 07H       0.140300
     14 C21         -5.7520    -1.3060    -4.1660 c3         1 07H       0.078500
     15 N19         -5.3940    -2.7040    -4.0330 n          1 07H      -0.452800
     16 C25         -4.6320    -2.9920    -2.8390 c3         1 07H       0.078500
     17 C24         -3.4520    -2.0220    -2.6050 c3         1 07H       0.140300
     18 C18         -5.3200    -3.5030    -5.1740 c          1 07H       0.662700
     19 O20         -5.6540    -3.0530    -6.2880 o          1 07H      -0.591100
     20 C14         -4.9160    -4.9340    -5.0320 ca         1 07H      -0.130600
     21 C13         -3.9360    -5.4390    -5.8930 ca         1 07H      -0.084000
     22 C12         -3.5800    -6.7840    -5.8170 ca         1 07H      -0.132000
     23 C11         -4.2020    -7.6280    -4.8990 ca         1 07H      -0.110000
     24 C15         -5.1920    -7.1290    -4.0400 ca         1 07H      -0.022000
     25 C16         -5.5460    -5.7730    -4.1120 ca         1 07H      -0.082000
     26 C17         -5.8700    -7.9820    -3.0860 cc         1 07H      -0.067300
     27 N27         -5.3210    -9.1500    -2.5260 na         1 07H      -0.012600
     28 N28         -6.1520    -9.7420    -1.6740 nc         1 07H      -0.505800
     29 C29         -7.2870    -8.9920    -1.6430 cd         1 07H       0.291200
     30 C30         -7.1570    -7.8580    -2.5250 cd         1 07H      -0.275300
     31 H1           1.9630    -0.2070    -0.5050 ha         1 07H       0.133000
     32 H2           2.9390    -0.3000     1.7890 ha         1 07H       0.134000
     33 H3           1.4530    -0.2550     3.7880 ha         1 07H       0.135000
     34 H4          -1.0340    -0.1080     3.5070 ha         1 07H       0.151000
     35 H5          -3.1010     1.4740     0.1120 h1         1 07H       0.068200
     36 H6          -3.8220    -0.2130    -0.0320 h1         1 07H       0.068200
     37 H7          -0.0600    -0.2040    -1.9840 ha         1 07H       0.137000
     38 H8          -1.9580     0.1780    -3.3490 h1         1 07H       0.042700
     39 H9          -3.1380     1.3400    -2.5870 h1         1 07H       0.042700
     40 H11         -5.0060     0.7030    -3.8360 h1         1 07H       0.043450
     41 H12         -3.9030    -0.3490    -4.8350 h1         1 07H       0.043450
     42 H13         -6.5590    -1.0970    -3.4070 h1         1 07H       0.068700
     43 H14         -6.1650    -1.1110    -5.1950 h1         1 07H       0.068700
     44 H15         -4.2160    -4.0370    -2.8730 h1         1 07H       0.068700
     45 H16         -5.3400    -2.9220    -1.9640 h1         1 07H       0.068700
     46 H17         -2.6230    -2.2780    -3.3280 h1         1 07H       0.043450
     47 H18         -3.0670    -2.1940    -1.5610 h1         1 07H       0.043450
     48 H19         -3.4660    -4.7750    -6.6350 ha         1 07H       0.152000
     49 H20         -2.8100    -7.1850    -6.4940 ha         1 07H       0.141000
     50 H21         -3.9210    -8.6910    -4.8690 ha         1 07H       0.133000
     51 H22         -6.3280    -5.3770    -3.4430 ha         1 07H       0.153000
     52 H23         -4.4140    -9.5170    -2.6910 hn         1 07H       0.320700
     53 H24         -8.1410    -9.2600    -1.0220 h4         1 07H       0.045100
     54 H25         -7.8950    -7.0890    -2.7190 ha         1 07H       0.168000
@<TRIPOS>BOND
     1     1     2 ar  
     2     1     6 ar  
     3     1    10 1   
     4     2     3 ar  
     5     2    31 1   
     6     3     4 ar  
     7     3    32 1   
     8     4     5 ar  
     9     4    33 1   
    10     5     6 ar  
    11     5    34 1   
    12     6     7 1   
    13     7     8 1   
    14     8     9 1   
    15     8    35 1   
    16     8    36 1   
    17     9    10 2   
    18     9    11 1   
    19    10    37 1   
    20    11    12 1   
    21    11    38 1   
    22    11    39 1   
    23    12    13 1   
    24    12    17 1   
    25    13    14 1   
    26    13    40 1   
    27    13    41 1   
    28    14    15 1   
    29    14    42 1   
    30    14    43 1   
    31    15    16 1   
    32    15    18 1   
    33    16    17 1   
    34    16    44 1   
    35    16    45 1   
    36    17    46 1   
    37    17    47 1   
    38    18    19 2   
    39    18    20 1   
    40    20    21 ar  
    41    20    25 ar  
    42    21    22 ar  
    43    21    48 1   
    44    22    23 ar  
    45    22    49 1   
    46    23    24 ar  
    47    23    50 1   
    48    24    25 ar  
    49    24    26 1   
    50    25    51 1   
    51    26    27 1   
    52    26    30 2   
    53    27    28 1   
    54    27    52 1   
    55    28    29 2   
    56    29    30 1   
    57    29    53 1   
    58    30    54 1   
@<TRIPOS>SUBSTRUCTURE
     1 07H         1 TEMP              0 ****  ****    0 ROOT
