@<TRIPOS>MOLECULE
molecule
   54    58     1     0     0
SMALL
bcc


@<TRIPOS>ATOM
      1 C1           0.0000     0.0000     0.0000 ca         1 07H      -0.133800
      2 C4           1.3900     0.0000     0.0000 ca         1 07H      -0.083000
      3 C8           2.0720     0.0000     1.2010 ca         1 07H      -0.159000
      4 C10          1.3770    -0.0090     2.3980 ca         1 07H      -0.095000
      5 C6          -0.0050    -0.0300     2.4080 ca         1 07H      -0.153000
      6 C2          -0.7010    -0.0340     1.2130 ca         1 07H       0.148100
      7 O5          -2.0590    -0.0810     1.1880 os         1 07H      -0.329900
      8 C9          -2.7190     0.6030     0.1240 c3         1 07H       0.196600
      9 C7          -2.0740     0.2800    -1.1980 c2         1 07H      -0.165400
     10 C3          -0.7750     0.0090    -1.2590 ce         1 07H      -0.088200
     11 C26         -2.9050     0.2660    -2.4550 c3         1 07H       0.208000
     12 N23         -3.0230     1.6330    -2.9800 n3         1 07H      -0.730600
     13 C22         -1.7490     2.0900    -3.5490 c3         1 07H       0.142300
     14 C21         -1.8600     3.5720    -3.9190 c3         1 07H       0.101000
     15 N19         -3.0300     3.7500    -4.7930 n          1 07H      -0.488800
     16 C25         -4.3190     3.1950    -4.3510 c3         1 07H       0.101000
     17 C24         -4.1100     1.7270    -3.9650 c3         1 07H       0.142300
     18 C18         -2.9240     4.4020    -5.9680 c          1 07H       0.677700
     19 O20         -1.8340     4.7680    -6.3630 o          1 07H      -0.607100
     20 C14         -4.1330     4.6720    -6.7750 ca         1 07H      -0.137600
     21 C13         -5.3550     4.9140    -6.1460 ca         1 07H      -0.112000
     22 C12         -6.4850     5.1650    -6.9000 ca         1 07H      -0.136000
     23 C11         -6.4140     5.1800    -8.2790 ca         1 07H      -0.086000
     24 C15         -5.1970     4.9390    -8.9210 ca         1 07H      -0.029000
     25 C16         -4.0530     4.6900    -8.1670 ca         1 07H      -0.070000
     26 C17         -5.1230     4.9550   -10.3980 cc         1 07H      -0.026300
     27 N27         -4.0090     4.7380   -11.1530 na         1 07H      -0.041600
     28 N28         -4.3810     4.8430   -12.5000 nc         1 07H      -0.500800
     29 C29         -5.6600     5.1110   -12.5590 cd         1 07H       0.334200
     30 C30         -6.1600     5.1840   -11.2580 cd         1 07H      -0.334300
     31 H1           1.9350     0.0070    -0.9360 ha         1 07H       0.133000
     32 H2           3.1550     0.0160     1.2060 ha         1 07H       0.132000
     33 H3           1.9210    -0.0090     3.3350 ha         1 07H       0.134000
     34 H4          -0.5410    -0.0370     3.3490 ha         1 07H       0.144000
     35 H5          -3.7580     0.2990     0.0970 h1         1 07H       0.064700
     36 H6          -2.6590     1.6710     0.2970 h1         1 07H       0.064700
     37 H7          -0.3000    -0.2260    -2.2040 ha         1 07H       0.137000
     38 H8          -2.4290    -0.3650    -3.1960 h1         1 07H       0.043200
     39 H9          -3.8920    -0.1210    -2.2320 h1         1 07H       0.043200
     40 H11         -1.5230     1.5130    -4.4380 h1         1 07H       0.045200
     41 H12         -0.9600     1.9600    -2.8180 h1         1 07H       0.045200
     42 H13         -0.9650     3.8840    -4.4440 h1         1 07H       0.067700
     43 H14         -1.9860     4.1620    -3.0200 h1         1 07H       0.067700
     44 H15         -5.0380     3.2590    -5.1590 h1         1 07H       0.067700
     45 H16         -4.6780     3.7500    -3.4920 h1         1 07H       0.067700
     46 H17         -5.0230     1.3360    -3.5330 h1         1 07H       0.045200
     47 H18         -3.8480     1.1560    -4.8470 h1         1 07H       0.045200
     48 H19         -5.4180     4.9040    -5.0640 ha         1 07H       0.145000
     49 H20         -7.4310     5.3530    -6.4070 ha         1 07H       0.138000
     50 H21         -7.3040     5.3760    -8.8640 ha         1 07H       0.142000
     51 H22         -3.1070     4.5020    -8.6600 ha         1 07H       0.146000
     52 H23         -3.0910     4.5390   -10.8080 hn         1 07H       0.333700
     53 H24         -6.2350     5.2490   -13.4660 h4         1 07H       0.049100
     54 H25         -7.1860     5.3920   -10.9800 ha         1 07H       0.154000
@<TRIPOS>BOND
     1     4     5 ar
     2     4     3 ar
     3     5     6 ar
     4     3     2 ar
     5     6     7 1
     6     6     1 ar
     7     2     1 ar
     8     7     8 1
     9     1    10 1
    10     8     9 1
    11    10     9 2
    12     9    11 1
    13    11    12 1
    14    12    17 1
    15    12    13 1
    16    17    16 1
    17    13    14 1
    18    16    15 1
    19    14    15 1
    20    15    18 1
    21    18    20 1
    22    18    19 2
    23    21    20 ar
    24    21    22 ar
    25    20    25 ar
    26    22    23 ar
    27    25    24 ar
    28    23    24 ar
    29    24    26 1
    30    26    27 1
    31    26    30 2
    32    27    28 1
    33    30    29 1
    34    28    29 2
    35     2    31 1
    36     3    32 1
    37     4    33 1
    38     5    34 1
    39     8    35 1
    40     8    36 1
    41    10    37 1
    42    11    38 1
    43    11    39 1
    44    13    40 1
    45    13    41 1
    46    14    42 1
    47    14    43 1
    48    16    44 1
    49    16    45 1
    50    17    46 1
    51    17    47 1
    52    21    48 1
    53    22    49 1
    54    23    50 1
    55    25    51 1
    56    27    52 1
    57    29    53 1
    58    30    54 1
@<TRIPOS>SUBSTRUCTURE
     1 07H         1 TEMP              0 ****  ****    0 ROOT
