@<TRIPOS>MOLECULE
07H
   54    58     1     0     0
SMALL
bcc


@<TRIPOS>ATOM
      1 C1           0.0000     0.0000     0.0000 ca         1 07H      -0.139800
      2 C4           1.3900     0.0000     0.0000 ca         1 07H      -0.051000
      3 C8           2.0720     0.0000     1.2010 ca         1 07H      -0.137000
      4 C10          1.3770    -0.0090     2.3980 ca         1 07H      -0.063000
      5 C6          -0.0050    -0.0300     2.4080 ca         1 07H      -0.136000
      6 C2          -0.7010    -0.0340     1.2130 ca         1 07H       0.160100
      7 O5          -2.0590    -0.0810     1.1880 os         1 07H      -0.310900
      8 C9          -2.7190     0.6030     0.1240 c3         1 07H       0.284600
      9 C7          -2.0740     0.2800    -1.1980 c2         1 07H      -0.193400
     10 C3          -0.7750     0.0090    -1.2590 ce         1 07H      -0.052200
     11 C26         -2.9050     0.2660    -2.4550 c3         1 07H       0.216000
     12 N23         -3.0230     1.6330    -2.9800 n3         1 07H      -0.539600
     13 C22         -1.7490     2.0900    -3.5490 c3         1 07H       0.131800
     14 C21         -1.8600     3.5720    -3.9190 c3         1 07H       0.032000
     15 N19         -3.0300     3.7500    -4.7930 n          1 07H      -0.147800
     16 C25         -4.3190     3.1950    -4.3510 c3         1 07H       0.032000
     17 C24         -4.1100     1.7270    -3.9650 c3         1 07H       0.131800
     18 C18         -2.9240     4.4020    -5.9680 c          1 07H       0.611700
     19 O20         -1.8340     4.7680    -6.3630 o          1 07H      -0.648100
     20 C14         -4.1330     4.6720    -6.7750 ca         1 07H      -0.139600
     21 C13         -5.3550     4.9140    -6.1460 ca         1 07H      -0.106000
     22 C12         -6.4850     5.1650    -6.9000 ca         1 07H      -0.102000
     23 C11         -6.4140     5.1800    -8.2790 ca         1 07H      -0.065000
     24 C15         -5.1970     4.9390    -8.9210 ca         1 07H      -0.013000
     25 C16         -4.0530     4.6900    -8.1670 ca         1 07H      -0.050000
     26 C17         -5.1230     4.9550   -10.3980 cc         1 07H      -0.195300
     27 N27         -4.0090     4.7380   -11.1530 na         1 07H       0.452400
     28 N28         -4.3810     4.8430   -12.5000 nc         1 07H      -0.655800
     29 C29         -5.6600     5.1110   -12.5590 cd         1 07H       0.396200
     30 C30         -6.1600     5.1840   -11.2580 cd         1 07H      -0.322300
     31 H1           1.9350     0.0070    -0.9360 ha         1 07H       0.104000
     32 H2           3.1550     0.0160     1.2060 ha         1 07H       0.106000
     33 H3           1.9210    -0.0090     3.3350 ha         1 07H       0.102000
     34 H4          -0.5410    -0.0370     3.3490 ha         1 07H       0.116000
     35 H5          -3.7580     0.2990     0.0970 h1         1 07H       0.019200
     36 H6          -2.6590     1.6710     0.2970 h1         1 07H       0.019200
     37 H7          -0.3000    -0.2260    -2.2040 ha         1 07H       0.112000
     38 H8          -2.4290    -0.3650    -3.1960 h1         1 07H       0.014700
     39 H9          -3.8920    -0.1210    -2.2320 h1         1 07H       0.014700
     40 H11         -1.5230     1.5130    -4.4380 h1         1 07H       0.019950
     41 H12         -0.9600     1.9600    -2.8180 h1         1 07H       0.019950
     42 H13         -0.9650     3.8840    -4.4440 h1         1 07H       0.043200
     43 H14         -1.9860     4.1620    -3.0200 h1         1 07H       0.043200
     44 H15         -5.0380     3.2590    -5.1590 h1         1 07H       0.043200
     45 H16         -4.6780     3.7500    -3.4920 h1         1 07H       0.043200
     46 H17         -5.0230     1.3360    -3.5330 h1         1 07H       0.019950
     47 H18         -3.8480     1.1560    -4.8470 h1         1 07H       0.019950
     48 H19         -5.4180     4.9040    -5.0640 ha         1 07H       0.126000
     49 H20         -7.4310     5.3530    -6.4070 ha         1 07H       0.108000
     50 H21         -7.3040     5.3760    -8.8640 ha         1 07H       0.115000
     51 H22         -3.1070     4.5020    -8.6600 ha         1 07H       0.117000
     52 H23         -3.0910     4.5390   -10.8080 hn         1 07H       0.153700
     53 H24         -6.2350     5.2490   -13.4660 h4         1 07H       0.003100
     54 H25         -7.1860     5.3920   -10.9800 ha         1 07H       0.136000
@<TRIPOS>BOND
     1     1     2 ar  
     2     1     6 ar  
     3     1    10 1   
     4     2     3 ar  
     5     2    31 1   
     6     3     4 ar  
     7     3    32 1   
     8     4     5 ar  
     9     4    33 1   
    10     5     6 ar  
    11     5    34 1   
    12     6     7 1   
    13     7     8 1   
    14     8     9 1   
    15     8    35 1   
    16     8    36 1   
    17     9    10 2   
    18     9    11 1   
    19    10    37 1   
    20    11    12 1   
    21    11    38 1   
    22    11    39 1   
    23    12    13 1   
    24    12    17 1   
    25    13    14 1   
    26    13    40 1   
    27    13    41 1   
    28    14    15 1   
    29    14    42 1   
    30    14    43 1   
    31    15    16 1   
    32    15    18 1   
    33    16    17 1   
    34    16    44 1   
    35    16    45 1   
    36    17    46 1   
    37    17    47 1   
    38    18    19 2   
    39    18    20 1   
    40    20    21 ar  
    41    20    25 ar  
    42    21    22 ar  
    43    21    48 1   
    44    22    23 ar  
    45    22    49 1   
    46    23    24 ar  
    47    23    50 1   
    48    24    25 ar  
    49    24    26 1   
    50    25    51 1   
    51    26    27 1   
    52    26    30 2   
    53    27    28 1   
    54    27    52 1   
    55    28    29 2   
    56    29    30 1   
    57    29    53 1   
    58    30    54 1   
@<TRIPOS>SUBSTRUCTURE
     1 07H         1 TEMP              0 ****  ****    0 ROOT
