@<TRIPOS>MOLECULE
07J
   69    72     1     0     0
SMALL
bcc


@<TRIPOS>ATOM
      1 O1           0.3600    -0.7230    -0.1230 o          1 07J      -0.595100
      2 C2           1.5390    -0.3300     0.0010 c          1 07J       0.794100
      3 N3           2.0290     0.1730     1.2170 ns         1 07J      -0.444100
      4 C4           1.2280     0.0860     2.3820 ca         1 07J       0.108600
      5 C5           0.1750     1.0080     2.5800 ca         1 07J      -0.039600
      6 Cl1         -0.1520     2.1900     1.4080 cl         1 07J      -0.050900
      7 C7          -0.5920     0.9380     3.7630 ca         1 07J       0.173100
      8 O8          -1.6060     1.8650     3.8830 os         1 07J      -0.308900
      9 C9          -2.4420     1.7540     5.0290 c3         1 07J       0.112700
     10 C10         -0.3090    -0.0110     4.7490 ca         1 07J      -0.272000
     11 C11          0.7460    -0.9090     4.5590 ca         1 07J       0.173100
     12 O12          1.1000    -1.8620     5.4920 os         1 07J      -0.308900
     13 C13          0.2640    -1.9760     6.6380 c3         1 07J       0.112700
     14 C14          1.5160    -0.8760     3.3810 ca         1 07J      -0.039600
     15 Cl2          2.7900    -1.9730     3.1390 cl         1 07J      -0.050900
     16 N16          2.3640    -0.2760    -1.1710 n          1 07J      -0.464300
     17 C17          1.6810    -0.1260    -2.4340 c3         1 07J       0.082300
     18 C18          3.7310    -0.5880    -1.1900 ca         1 07J       0.605200
     19 C19          4.4630    -0.4810    -2.4080 ca         1 07J      -0.462600
     20 C20          5.8480    -0.8150    -2.3960 ca         1 07J       0.705200
     21 N21          6.4650    -1.2420    -1.2360 nb         1 07J      -0.782000
     22 C22          5.6730    -1.2940    -0.1440 ca         1 07J       0.699900
     23 N23          4.3580    -1.0060    -0.0360 nb         1 07J      -0.804000
     24 N24          6.6390    -0.6420    -3.5320 nu         1 07J      -0.733300
     25 C25          6.1230    -0.7590    -4.8420 ca         1 07J       0.097600
     26 C26          5.0480    -1.6050    -5.1720 ca         1 07J      -0.127500
     27 C27          4.5840    -1.6910    -6.4790 ca         1 07J      -0.153500
     28 C28          5.1720    -0.9370    -7.5170 ca         1 07J       0.130600
     29 C29          6.2590    -0.0960    -7.1790 ca         1 07J      -0.153500
     30 C30          6.7230    -0.0080    -5.8760 ca         1 07J      -0.127500
     31 N31          4.6660    -0.9280    -8.8400 nh         1 07J      -0.634000
     32 C32          5.6450    -1.1900    -9.8860 c3         1 07J       0.184800
     33 C33          5.0730    -0.9700   -11.3000 c3         1 07J       0.164800
     34 N34          3.8180    -1.6710   -11.5250 n3         1 07J      -0.729600
     35 C35          3.2540    -1.4230   -12.8460 c3         1 07J       0.169800
     36 C36          4.1550    -1.8310   -13.9990 c3         1 07J      -0.095100
     37 C37          2.8480    -1.4030   -10.4720 c3         1 07J       0.164800
     38 C38          3.4150    -1.6360    -9.0570 c3         1 07J       0.184800
     39 H1           3.0130     0.1560     1.3900 hn         1 07J       0.348500
     40 H2          -3.1980     2.5660     4.8700 h1         1 07J       0.048200
     41 H3          -2.9400     0.7550     5.0640 h1         1 07J       0.048200
     42 H4          -1.8580     1.9390     5.9630 h1         1 07J       0.048200
     43 H5          -0.9100    -0.0510     5.6670 ha         1 07J       0.151000
     44 H6          -0.7860    -2.2130     6.3430 h1         1 07J       0.048200
     45 H7           0.3030    -1.0420     7.2490 h1         1 07J       0.048200
     46 H8           0.7200    -2.8320     7.1990 h1         1 07J       0.048200
     47 H9           2.0450     0.8070    -2.9440 h1         1 07J       0.057367
     48 H10          0.5740    -0.0430    -2.2670 h1         1 07J       0.057367
     49 H11          1.8790    -1.0120    -3.0960 h1         1 07J       0.057367
     50 H12          3.9980    -0.1250    -3.3350 ha         1 07J       0.167000
     51 H13          6.1670    -1.6310     0.7940 h5         1 07J       0.054100
     52 H14          7.6120    -0.8530    -3.4440 hn         1 07J       0.445800
     53 H15          4.5630    -2.2140    -4.3930 ha         1 07J       0.142000
     54 H16          3.7440    -2.3730    -6.6840 ha         1 07J       0.139500
     55 H17          6.7450     0.5220    -7.9510 ha         1 07J       0.139500
     56 H18          7.5680     0.6630    -5.6530 ha         1 07J       0.142000
     57 H19          6.0390    -2.2450    -9.8150 h1         1 07J       0.044450
     58 H20          6.5120    -0.4850    -9.7570 h1         1 07J       0.044450
     59 H21          4.9710     0.1400   -11.4810 h1         1 07J       0.040200
     60 H22          5.8280    -1.3730   -12.0320 h1         1 07J       0.040200
     61 H24          2.9760    -0.3350   -12.9780 h1         1 07J       0.031200
     62 H25          2.3010    -2.0230   -12.9100 h1         1 07J       0.031200
     63 H26          4.5290    -2.8750   -13.8720 hc         1 07J       0.040367
     64 H27          3.5680    -1.7760   -14.9480 hc         1 07J       0.040367
     65 H28          5.0330    -1.1470   -14.0870 hc         1 07J       0.040367
     66 H29          1.9850    -2.1130   -10.6100 h1         1 07J       0.040200
     67 H30          2.4450    -0.3500   -10.5310 h1         1 07J       0.040200
     68 H31          3.5330    -2.7470    -8.8950 h1         1 07J       0.044450
     69 H32          2.6580    -1.2480    -8.3200 h1         1 07J       0.044450
@<TRIPOS>BOND
     1     1     2 2   
     2     2     3 1   
     3     2    16 1   
     4     3     4 1   
     5     3    39 1   
     6     4     5 ar  
     7     4    14 ar  
     8     5     6 1   
     9     5     7 ar  
    10     7     8 1   
    11     7    10 ar  
    12     8     9 1   
    13     9    40 1   
    14     9    41 1   
    15     9    42 1   
    16    10    11 ar  
    17    10    43 1   
    18    11    12 1   
    19    11    14 ar  
    20    12    13 1   
    21    13    44 1   
    22    13    45 1   
    23    13    46 1   
    24    14    15 1   
    25    16    17 1   
    26    16    18 1   
    27    17    47 1   
    28    17    48 1   
    29    17    49 1   
    30    18    19 ar  
    31    18    23 ar  
    32    19    20 ar  
    33    19    50 1   
    34    20    21 ar  
    35    20    24 1   
    36    21    22 ar  
    37    22    23 ar  
    38    22    51 1   
    39    24    25 1   
    40    24    52 1   
    41    25    26 ar  
    42    25    30 ar  
    43    26    27 ar  
    44    26    53 1   
    45    27    28 ar  
    46    27    54 1   
    47    28    29 ar  
    48    28    31 1   
    49    29    30 ar  
    50    29    55 1   
    51    30    56 1   
    52    31    32 1   
    53    31    38 1   
    54    32    33 1   
    55    32    57 1   
    56    32    58 1   
    57    33    34 1   
    58    33    59 1   
    59    33    60 1   
    60    34    35 1   
    61    34    37 1   
    62    35    36 1   
    63    35    61 1   
    64    35    62 1   
    65    36    63 1   
    66    36    64 1   
    67    36    65 1   
    68    37    38 1   
    69    37    66 1   
    70    37    67 1   
    71    38    68 1   
    72    38    69 1   
@<TRIPOS>SUBSTRUCTURE
     1 07J         1 TEMP              0 ****  ****    0 ROOT
