@<TRIPOS>MOLECULE
molecule
   69    72     1     0     0
SMALL
bcc


@<TRIPOS>ATOM
      1 O1           0.0000     0.0000     0.0000 o          1 07J      -0.598100
      2 C2           1.2160     0.0000     0.0000 c          1 07J       0.786100
      3 N3           1.8900     0.0000     1.1680 ns         1 07J      -0.482100
      4 C4           1.1900     0.0590     2.3800 ca         1 07J       0.153600
      5 C5           1.5770    -0.7440     3.4440 ca         1 07J      -0.052600
      6 Cl1          2.9280    -1.8210     3.2740 cl         1 07J      -0.063400
      7 C7           0.8840    -0.6850     4.6440 ca         1 07J       0.200600
      8 O8           1.2630    -1.4700     5.6870 os         1 07J      -0.307900
      9 C9           0.5040    -1.3580     6.8930 c3         1 07J       0.127700
     10 C10         -0.1950     0.1750     4.7810 ca         1 07J      -0.319000
     11 C11         -0.5820     0.9770     3.7180 ca         1 07J       0.200600
     12 O12         -1.6410     1.8200     3.8530 os         1 07J      -0.307900
     13 C13         -2.3070     1.8280     5.1170 c3         1 07J       0.127700
     14 C14          0.1130     0.9240     2.5190 ca         1 07J      -0.052600
     15 Cl2         -0.3710     1.9290     1.1890 cl         1 07J      -0.063400
     16 N16          1.8910    -0.0040    -1.1670 n          1 07J      -0.501300
     17 C17          3.3510    -0.1110    -1.1680 c3         1 07J       0.095300
     18 C18          1.1990     0.0920    -2.3700 ca         1 07J       0.636200
     19 C19          0.8500    -1.0520    -3.0770 ca         1 07J      -0.425600
     20 C20          0.1590    -0.9030    -4.2760 ca         1 07J       0.727200
     21 N21         -0.1430     0.3240    -4.6990 nb         1 07J      -0.799000
     22 C22          0.2050     1.3840    -3.9990 ca         1 07J       0.729900
     23 N23          0.8550     1.2830    -2.8580 nb         1 07J      -0.779000
     24 N24         -0.2110    -2.0130    -5.0190 nu         1 07J      -0.763300
     25 C25         -0.7970    -1.8490    -6.2800 ca         1 07J       0.126600
     26 C26         -0.4230    -0.7810    -7.0860 ca         1 07J      -0.120500
     27 C27         -1.0000    -0.6190    -8.3300 ca         1 07J      -0.149500
     28 C28         -1.9530    -1.5240    -8.7760 ca         1 07J       0.088600
     29 C29         -2.3280    -2.5920    -7.9710 ca         1 07J      -0.149500
     30 C30         -1.7470    -2.7570    -6.7290 ca         1 07J      -0.120500
     31 N31         -2.5390    -1.3600   -10.0370 nh         1 07J      -0.599000
     32 C32         -3.5170    -2.4240   -10.3060 c3         1 07J       0.164800
     33 C33         -4.0730    -2.2530   -11.7210 c3         1 07J       0.159800
     34 N34         -4.6950    -0.9270   -11.8440 n3         1 07J      -0.733600
     35 C35         -5.3100    -0.7550   -13.1680 c3         1 07J       0.160800
     36 C36         -6.1540     0.5210   -13.1750 c3         1 07J      -0.095100
     37 C37         -3.7180     0.1370   -11.5750 c3         1 07J       0.159800
     38 C38         -3.1610    -0.0340   -10.1600 c3         1 07J       0.164800
     39 H1           2.8900    -0.0070     1.1670 hn         1 07J       0.334500
     40 H2          -0.5300    -1.6160     6.6940 h1         1 07J       0.044033
     41 H3           0.5580    -0.3400     7.2600 h1         1 07J       0.044033
     42 H4           0.9070    -2.0330     7.6380 h1         1 07J       0.044033
     43 H5          -0.7360     0.2210     5.7180 ha         1 07J       0.151000
     44 H6          -2.6940     0.8380     5.3270 h1         1 07J       0.044033
     45 H7          -3.1250     2.5380     5.0900 h1         1 07J       0.044033
     46 H8          -1.6060     2.1130     5.8920 h1         1 07J       0.044033
     47 H9           3.7060    -0.1910    -2.1890 h1         1 07J       0.045033
     48 H10          3.6490    -0.9920    -0.6120 h1         1 07J       0.045033
     49 H11          3.7780     0.7700    -0.7050 h1         1 07J       0.045033
     50 H12          1.1110    -2.0360    -2.7050 ha         1 07J       0.150000
     51 H13         -0.0570     2.3680    -4.3690 h5         1 07J       0.062100
     52 H14         -0.0400    -2.9330    -4.6640 hn         1 07J       0.457800
     53 H15          0.3210    -0.0750    -6.7380 ha         1 07J       0.143500
     54 H16         -0.7080     0.2140    -8.9580 ha         1 07J       0.138500
     55 H17         -3.0700    -3.2990    -8.3200 ha         1 07J       0.138500
     56 H18         -2.0390    -3.5910    -6.1010 ha         1 07J       0.143500
     57 H19         -3.0310    -3.3880   -10.2230 h1         1 07J       0.049700
     58 H20         -4.3270    -2.3580    -9.5900 h1         1 07J       0.049700
     59 H21         -3.2660    -2.3400   -12.4390 h1         1 07J       0.042450
     60 H22         -4.8160    -3.0190   -11.9110 h1         1 07J       0.042450
     61 H24         -4.5340    -0.6780   -13.9190 h1         1 07J       0.032700
     62 H25         -5.9420    -1.6070   -13.3860 h1         1 07J       0.032700
     63 H26         -6.9490     0.4240   -13.9050 hc         1 07J       0.039700
     64 H27         -6.5830     0.6760   -12.1930 hc         1 07J       0.039700
     65 H28         -5.5280     1.3670   -13.4340 hc         1 07J       0.039700
     66 H29         -4.2040     1.1010   -11.6570 h1         1 07J       0.042450
     67 H30         -2.9080     0.0720   -12.2920 h1         1 07J       0.042450
     68 H31         -3.9670     0.0530    -9.4420 h1         1 07J       0.049700
     69 H32         -2.4170     0.7310    -9.9710 h1         1 07J       0.049700
@<TRIPOS>BOND
     1    13    12 1
     2    12    11 1
     3    11    10 ar
     4    11    14 ar
     5    15    14 1
     6    10     7 ar
     7    14     4 ar
     8     9     8 1
     9     7     8 1
    10     7     5 ar
    11     1     2 2
    12     4     5 ar
    13     4     3 1
    14     5     6 1
    15     2     3 1
    16     2    16 1
    17    17    16 1
    18    16    18 1
    19    18    19 ar
    20    18    23 ar
    21    26    27 ar
    22    26    25 ar
    23    19    20 ar
    24    23    22 ar
    25    27    28 ar
    26    38    37 1
    27    38    31 1
    28    37    34 1
    29    20    24 1
    30    20    21 ar
    31    22    21 ar
    32    24    25 1
    33    25    30 ar
    34    34    35 1
    35    34    33 1
    36    35    36 1
    37    28    31 1
    38    28    29 ar
    39    31    32 1
    40    32    33 1
    41    30    29 ar
    42     3    39 1
    43     9    40 1
    44     9    41 1
    45     9    42 1
    46    10    43 1
    47    13    44 1
    48    13    45 1
    49    13    46 1
    50    17    47 1
    51    17    48 1
    52    17    49 1
    53    19    50 1
    54    22    51 1
    55    24    52 1
    56    26    53 1
    57    27    54 1
    58    29    55 1
    59    30    56 1
    60    32    57 1
    61    32    58 1
    62    33    59 1
    63    33    60 1
    64    35    61 1
    65    35    62 1
    66    36    63 1
    67    36    64 1
    68    36    65 1
    69    37    66 1
    70    37    67 1
    71    38    68 1
    72    38    69 1
@<TRIPOS>SUBSTRUCTURE
     1 07J         1 TEMP              0 ****  ****    0 ROOT
