@<TRIPOS>MOLECULE
07J
   69    72     1     0     0
SMALL
bcc


@<TRIPOS>ATOM
      1 O1           0.0000     0.0000     0.0000 o          1 07J      -0.663100
      2 C2           1.2160     0.0000     0.0000 c          1 07J       0.568100
      3 N3           1.8900     0.0000     1.1680 ns         1 07J      -0.059100
      4 C4           1.1900     0.0590     2.3800 ca         1 07J       0.007600
      5 C5           1.5770    -0.7440     3.4440 ca         1 07J      -0.131600
      6 Cl1          2.9280    -1.8210     3.2740 cl         1 07J       0.029600
      7 C7           0.8840    -0.6850     4.6440 ca         1 07J       0.211600
      8 O8           1.2630    -1.4700     5.6870 os         1 07J      -0.294900
      9 C9           0.5040    -1.3580     6.8930 c3         1 07J       0.245200
     10 C10         -0.1950     0.1750     4.7810 ca         1 07J      -0.322000
     11 C11         -0.5820     0.9770     3.7180 ca         1 07J       0.211600
     12 O12         -1.6410     1.8200     3.8530 os         1 07J      -0.294900
     13 C13         -2.3070     1.8280     5.1170 c3         1 07J       0.245200
     14 C14          0.1130     0.9240     2.5190 ca         1 07J      -0.131600
     15 Cl2         -0.3710     1.9290     1.1890 cl         1 07J       0.029600
     16 N16          1.8910    -0.0040    -1.1670 n          1 07J      -0.143300
     17 C17          3.3510    -0.1110    -1.1680 c3         1 07J       0.075300
     18 C18          1.1990     0.0920    -2.3700 ca         1 07J       0.474200
     19 C19          0.8500    -1.0520    -3.0770 ca         1 07J      -0.403600
     20 C20          0.1590    -0.9030    -4.2760 ca         1 07J       0.530200
     21 N21         -0.1430     0.3240    -4.6990 nb         1 07J      -0.689000
     22 C22          0.2050     1.3840    -3.9990 ca         1 07J       0.679900
     23 N23          0.8550     1.2830    -2.8580 nb         1 07J      -0.669000
     24 N24         -0.2110    -2.0130    -5.0190 nu         1 07J      -0.291300
     25 C25         -0.7970    -1.8490    -6.2800 ca         1 07J      -0.032400
     26 C26         -0.4230    -0.7810    -7.0860 ca         1 07J      -0.092000
     27 C27         -1.0000    -0.6190    -8.3300 ca         1 07J      -0.128000
     28 C28         -1.9530    -1.5240    -8.7760 ca         1 07J       0.011600
     29 C29         -2.3280    -2.5920    -7.9710 ca         1 07J      -0.128000
     30 C30         -1.7470    -2.7570    -6.7290 ca         1 07J      -0.092000
     31 N31         -2.5390    -1.3600   -10.0370 nh         1 07J      -0.366000
     32 C32         -3.5170    -2.4240   -10.3060 c3         1 07J       0.136300
     33 C33         -4.0730    -2.2530   -11.7210 c3         1 07J       0.149800
     34 N34         -4.6950    -0.9270   -11.8440 n3         1 07J      -0.546600
     35 C35         -5.3100    -0.7550   -13.1680 c3         1 07J       0.155800
     36 C36         -6.1540     0.5210   -13.1750 c3         1 07J      -0.003100
     37 C37         -3.7180     0.1370   -11.5750 c3         1 07J       0.149800
     38 C38         -3.1610    -0.0340   -10.1600 c3         1 07J       0.136300
     39 H1           2.8900    -0.0070     1.1670 hn         1 07J       0.179500
     40 H2          -0.5300    -1.6160     6.6940 h1         1 07J      -0.001300
     41 H3           0.5580    -0.3400     7.2600 h1         1 07J      -0.001300
     42 H4           0.9070    -2.0330     7.6380 h1         1 07J      -0.001300
     43 H5          -0.7360     0.2210     5.7180 ha         1 07J       0.143000
     44 H6          -2.6940     0.8380     5.3270 h1         1 07J      -0.001300
     45 H7          -3.1250     2.5380     5.0900 h1         1 07J      -0.001300
     46 H8          -1.6060     2.1130     5.8920 h1         1 07J      -0.001300
     47 H9           3.7060    -0.1910    -2.1890 h1         1 07J       0.011033
     48 H10          3.6490    -0.9920    -0.6120 h1         1 07J       0.011033
     49 H11          3.7780     0.7700    -0.7050 h1         1 07J       0.011033
     50 H12          1.1110    -2.0360    -2.7050 ha         1 07J       0.130000
     51 H13         -0.0570     2.3680    -4.3690 h5         1 07J      -0.001900
     52 H14         -0.0400    -2.9330    -4.6640 hn         1 07J       0.286800
     53 H15          0.3210    -0.0750    -6.7380 ha         1 07J       0.118000
     54 H16         -0.7080     0.2140    -8.9580 ha         1 07J       0.118500
     55 H17         -3.0700    -3.2990    -8.3200 ha         1 07J       0.118500
     56 H18         -2.0390    -3.5910    -6.1010 ha         1 07J       0.118000
     57 H19         -3.0310    -3.3880   -10.2230 h1         1 07J       0.024450
     58 H20         -4.3270    -2.3580    -9.5900 h1         1 07J       0.024450
     59 H21         -3.2660    -2.3400   -12.4390 h1         1 07J       0.016200
     60 H22         -4.8160    -3.0190   -11.9110 h1         1 07J       0.016200
     61 H24         -4.5340    -0.6780   -13.9190 h1         1 07J       0.007200
     62 H25         -5.9420    -1.6070   -13.3860 h1         1 07J       0.007200
     63 H26         -6.9490     0.4240   -13.9050 hc         1 07J       0.007367
     64 H27         -6.5830     0.6760   -12.1930 hc         1 07J       0.007367
     65 H28         -5.5280     1.3670   -13.4340 hc         1 07J       0.007367
     66 H29         -4.2040     1.1010   -11.6570 h1         1 07J       0.016200
     67 H30         -2.9080     0.0720   -12.2920 h1         1 07J       0.016200
     68 H31         -3.9670     0.0530    -9.4420 h1         1 07J       0.024450
     69 H32         -2.4170     0.7310    -9.9710 h1         1 07J       0.024450
@<TRIPOS>BOND
     1     1     2 2   
     2     2     3 1   
     3     2    16 1   
     4     3     4 1   
     5     3    39 1   
     6     4     5 ar  
     7     4    14 ar  
     8     5     6 1   
     9     5     7 ar  
    10     7     8 1   
    11     7    10 ar  
    12     8     9 1   
    13     9    40 1   
    14     9    41 1   
    15     9    42 1   
    16    10    11 ar  
    17    10    43 1   
    18    11    12 1   
    19    11    14 ar  
    20    12    13 1   
    21    13    44 1   
    22    13    45 1   
    23    13    46 1   
    24    14    15 1   
    25    16    17 1   
    26    16    18 1   
    27    17    47 1   
    28    17    48 1   
    29    17    49 1   
    30    18    19 ar  
    31    18    23 ar  
    32    19    20 ar  
    33    19    50 1   
    34    20    21 ar  
    35    20    24 1   
    36    21    22 ar  
    37    22    23 ar  
    38    22    51 1   
    39    24    25 1   
    40    24    52 1   
    41    25    26 ar  
    42    25    30 ar  
    43    26    27 ar  
    44    26    53 1   
    45    27    28 ar  
    46    27    54 1   
    47    28    29 ar  
    48    28    31 1   
    49    29    30 ar  
    50    29    55 1   
    51    30    56 1   
    52    31    32 1   
    53    31    38 1   
    54    32    33 1   
    55    32    57 1   
    56    32    58 1   
    57    33    34 1   
    58    33    59 1   
    59    33    60 1   
    60    34    35 1   
    61    34    37 1   
    62    35    36 1   
    63    35    61 1   
    64    35    62 1   
    65    36    63 1   
    66    36    64 1   
    67    36    65 1   
    68    37    38 1   
    69    37    66 1   
    70    37    67 1   
    71    38    68 1   
    72    38    69 1   
@<TRIPOS>SUBSTRUCTURE
     1 07J         1 TEMP              0 ****  ****    0 ROOT
