@<TRIPOS>MOLECULE
07K
   22    23     1     0     0
SMALL
bcc


@<TRIPOS>ATOM
      1 C10          0.0150    -0.0540    -0.0080 ca         1 07K      -0.133000
      2 C01         -0.0050    -0.0460     2.4190 ca         1 07K      -0.175300
      3 C02          1.4250    -0.0370     2.4350 ca         1 07K       0.423600
      4 N03          2.1520    -0.0390     3.6100 nb         1 07K      -0.695000
      5 C04          1.4820    -0.0450     4.7490 ca         1 07K       0.448200
      6 C05          0.0680    -0.0400     4.8570 ca         1 07K      -0.348300
      7 C06         -0.7000    -0.0450     3.6900 ca         1 07K       0.201600
      8 N07         -2.0850    -0.1170     3.7560 nv         1 07K      -0.832200
      9 C08          2.1320    -0.0290     1.1790 ca         1 07K      -0.113600
     10 C09          1.4250    -0.0350    -0.0030 ca         1 07K      -0.124000
     11 C11         -0.6840    -0.0600     1.1750 ca         1 07K      -0.114000
     12 C12          3.6140    -0.0150     1.1680 c3         1 07K      -0.046800
     13 H1          -0.5170    -0.0660    -0.9710 ha         1 07K       0.133000
     14 H2           2.0940    -0.0490     5.6710 h4         1 07K       0.018100
     15 H3          -0.3920    -0.0400     5.8530 ha         1 07K       0.141000
     16 H4          -2.5870     0.2220     2.9700 hn         1 07K       0.405300
     17 H5          -2.4850     0.1160     4.6360 hn         1 07K       0.405300
     18 H6           1.9590    -0.0290    -0.9660 ha         1 07K       0.135000
     19 H7          -1.7830    -0.0900     1.1380 ha         1 07K       0.125000
     20 H8           3.9990     0.8910     1.7000 hc         1 07K       0.049367
     21 H9           4.0090    -0.0070     0.1220 hc         1 07K       0.049367
     22 H10          4.0150    -0.9190     1.6920 hc         1 07K       0.049367
@<TRIPOS>BOND
     1     1    10 ar  
     2     1    11 ar  
     3     1    13 1   
     4     2     3 ar  
     5     2     7 ar  
     6     2    11 ar  
     7     3     4 ar  
     8     3     9 ar  
     9     4     5 ar  
    10     5     6 ar  
    11     5    14 1   
    12     6     7 ar  
    13     6    15 1   
    14     7     8 1   
    15     8    16 1   
    16     8    17 1   
    17     9    10 ar  
    18     9    12 1   
    19    10    18 1   
    20    11    19 1   
    21    12    20 1   
    22    12    21 1   
    23    12    22 1   
@<TRIPOS>SUBSTRUCTURE
     1 07K         1 TEMP              0 ****  ****    0 ROOT
