@<TRIPOS>MOLECULE
07K
   22    23     1     0     0
SMALL
bcc


@<TRIPOS>ATOM
      1 C10          0.0000     0.0000     0.0000 ca         1 07K      -0.094000
      2 C01         -0.0080     0.0020     2.3900 ca         1 07K      -0.156300
      3 C02          1.4080     0.0020     2.3940 ca         1 07K       0.381600
      4 N03          2.0720     0.0010     3.5550 nb         1 07K      -0.575000
      5 C04          1.4450     0.0020     4.7090 ca         1 07K       0.413200
      6 C05          0.0600     0.0020     4.7890 ca         1 07K      -0.243300
      7 C06         -0.6950     0.0030     3.6260 ca         1 07K       0.075600
      8 N07         -2.0810     0.0040     3.6730 nv         1 07K      -0.552200
      9 C08          2.0940     0.0000     1.1670 ca         1 07K      -0.126600
     10 C09          1.3920     0.0000     0.0000 ca         1 07K      -0.101000
     11 C11         -0.6990     0.0020     1.1700 ca         1 07K      -0.089000
     12 C12          3.6010    -0.0010     1.1430 c3         1 07K       0.069200
     13 H1          -0.5350    -0.0000    -0.9420 ha         1 07K       0.101000
     14 H2           2.0260     0.0010     5.6240 h4         1 07K      -0.024900
     15 H3          -0.4290     0.0030     5.7560 ha         1 07K       0.116000
     16 H4          -2.5810    -0.8620     3.7100 hn         1 07K       0.277800
     17 H5          -2.5800     0.8710     3.7090 hn         1 07K       0.277800
     18 H6           1.9250    -0.0020    -0.9430 ha         1 07K       0.107000
     19 H7          -1.7820     0.0020     1.1570 ha         1 07K       0.110000
     20 H8           3.9710     0.8830     1.6480 hc         1 07K       0.011367
     21 H9           3.9450    -0.0010     0.1160 hc         1 07K       0.011367
     22 H10          3.9700    -0.8860     1.6470 hc         1 07K       0.011367
@<TRIPOS>BOND
     1     1    10 ar  
     2     1    11 ar  
     3     1    13 1   
     4     2     3 ar  
     5     2     7 ar  
     6     2    11 ar  
     7     3     4 ar  
     8     3     9 ar  
     9     4     5 ar  
    10     5     6 ar  
    11     5    14 1   
    12     6     7 ar  
    13     6    15 1   
    14     7     8 1   
    15     8    16 1   
    16     8    17 1   
    17     9    10 ar  
    18     9    12 1   
    19    10    18 1   
    20    11    19 1   
    21    12    20 1   
    22    12    21 1   
    23    12    22 1   
@<TRIPOS>SUBSTRUCTURE
     1 07K         1 TEMP              0 ****  ****    0 ROOT
