@<TRIPOS>MOLECULE
07L
   18    19     1     0     0
SMALL
bcc


@<TRIPOS>ATOM
      1 O11          0.0000     0.0000     0.0000 o          1 07L      -0.622500
      2 C9           1.2180     0.0000     0.0000 c          1 07L       0.787800
      3 C8           1.9040     0.0000     1.2320 cc         1 07L      -0.261200
      4 C7           3.2620    -0.0010     1.2490 cd         1 07L       0.026800
      5 C2           3.9700    -0.0020    -0.0330 ca         1 07L      -0.194800
      6 O10          1.8730    -0.0060    -1.1720 os         1 07L      -0.274200
      7 C3           3.2210    -0.0020    -1.2260 ca         1 07L       0.193100
      8 C4           3.8830    -0.0030    -2.4440 ca         1 07L      -0.176000
      9 C5           5.2670    -0.0030    -2.4770 ca         1 07L       0.181100
     10 O12          5.9130    -0.0040    -3.6700 oh         1 07L      -0.498100
     11 C6           6.0040    -0.0030    -1.2930 ca         1 07L      -0.172000
     12 C1           5.3690    -0.0020    -0.0840 ca         1 07L      -0.015000
     13 H1           1.3510     0.0820     2.1600 ha         1 07L       0.141000
     14 H2           3.8070    -0.0010     2.1850 ha         1 07L       0.110000
     15 H3           3.3190    -0.0760    -3.3670 ha         1 07L       0.134000
     16 H4           6.0300    -0.8920    -3.9650 ho         1 07L       0.410000
     17 H5           7.0860    -0.0040    -1.3330 ha         1 07L       0.121000
     18 H6           5.9460    -0.0020     0.8320 ha         1 07L       0.108000
@<TRIPOS>BOND
     1     1     2 2   
     2     2     3 1   
     3     2     6 1   
     4     3     4 2   
     5     3    13 1   
     6     4     5 1   
     7     4    14 1   
     8     5     7 ar  
     9     5    12 ar  
    10     6     7 1   
    11     7     8 ar  
    12     8     9 ar  
    13     8    15 1   
    14     9    10 1   
    15     9    11 ar  
    16    10    16 1   
    17    11    12 ar  
    18    11    17 1   
    19    12    18 1   
@<TRIPOS>SUBSTRUCTURE
     1 07L         1 TEMP              0 ****  ****    0 ROOT
