@<TRIPOS>MOLECULE
07L
   18    19     1     0     0
SMALL
bcc


@<TRIPOS>ATOM
      1 O11          0.0060     0.0340    -0.1880 o          1 07L      -0.562500
      2 C9           1.2270     0.0250    -0.0410 c          1 07L       0.720800
      3 C8           2.0130    -0.0600     1.1800 cc         1 07L      -0.263200
      4 C7           3.3620    -0.0550     1.1330 cd         1 07L      -0.000200
      5 C2           4.0340     0.0340    -0.1370 ca         1 07L      -0.194800
      6 O10          1.8730     0.1130    -1.2780 os         1 07L      -0.326200
      7 C3           3.2490     0.1160    -1.3070 ca         1 07L       0.195100
      8 C4           3.8370     0.2060    -2.5800 ca         1 07L      -0.246000
      9 C5           5.2300     0.2120    -2.6590 ca         1 07L       0.177100
     10 O12          5.8980     0.2970    -3.8540 oh         1 07L      -0.488100
     11 C6           6.0380     0.1320    -1.5020 ca         1 07L      -0.184000
     12 C1           5.4350     0.0440    -0.2610 ca         1 07L      -0.039000
     13 H1           1.4400    -0.1260     2.1160 ha         1 07L       0.170000
     14 H2           3.9760    -0.1190     2.0450 ha         1 07L       0.147000
     15 H3           3.2010     0.2680    -3.4740 ha         1 07L       0.163000
     16 H4           5.2430     0.3460    -4.5670 ho         1 07L       0.429000
     17 H5           7.1310     0.1410    -1.6110 ha         1 07L       0.159000
     18 H6           6.0530    -0.0190     0.6490 ha         1 07L       0.143000
@<TRIPOS>BOND
     1     1     2 2   
     2     2     3 1   
     3     2     6 1   
     4     3     4 2   
     5     3    13 1   
     6     4     5 1   
     7     4    14 1   
     8     5     7 ar  
     9     5    12 ar  
    10     6     7 1   
    11     7     8 ar  
    12     8     9 ar  
    13     8    15 1   
    14     9    10 1   
    15     9    11 ar  
    16    10    16 1   
    17    11    12 ar  
    18    11    17 1   
    19    12    18 1   
@<TRIPOS>SUBSTRUCTURE
     1 07L         1 TEMP              0 ****  ****    0 ROOT
