@<TRIPOS>MOLECULE
07M
   35    39     1     0     0
SMALL
bcc


@<TRIPOS>ATOM
      1 C1           0.0000     0.0000     0.0000 c2         1 07M      -0.118000
      2 C2          -0.7640    -0.0000    -1.2990 c3         1 07M      -0.181000
      3 C3          -3.5600     4.7110    -5.3000 c3         1 07M      -0.188000
      4 O4          -2.2900     4.8420    -4.6500 os         1 07M      -0.221000
      5 C5          -2.1010     3.9020    -3.5920 c3         1 07M      -0.012000
      6 C6          -3.5620     3.4070    -6.1010 c3         1 07M      -0.190000
      7 C7          -3.0670     2.2790    -5.2380 c3         1 07M       0.059000
      8 C8          -2.3870     2.5060    -4.0780 c3         1 07M       0.024000
      9 C9          -1.9460     1.4170    -3.3200 c2         1 07M      -0.182000
     10 N10         -2.1800     0.1720    -3.7070 n2         1 07M      -0.089000
     11 C11         -2.8370    -0.0940    -4.8220 c2         1 07M       0.108000
     12 C12         -3.3060     0.9520    -5.6320 c2         1 07M      -0.107000
     13 C13         -4.3710     0.5150    -6.7220 c1         1 07M      -0.100000
     14 N14         -4.9060     0.2260    -7.4370 n1         1 07M      -0.005000
     15 O15         -3.0590    -1.3800    -5.1850 oh         1 07M      -0.213000
     16 S16         -1.0640     1.7070    -1.8220 ss         1 07M       0.132000
     17 C17          1.3950     0.0000     0.0000 c2         1 07M       0.084000
     18 N18          2.0690     0.0000     1.1440 n2         1 07M      -0.037000
     19 C19          1.4540    -0.0010     2.3060 c2         1 07M      -0.077000
     20 C20          0.0710    -0.0020     2.3810 c2         1 07M      -0.113000
     21 C21         -0.6730     0.0040     1.2100 c2         1 07M      -0.044000
     22 C22          2.1060     0.0010    -1.2430 c1         1 07M      -0.105000
     23 N23          2.6780    -0.0150    -2.2250 n1         1 07M      -0.026000
     24 H1          -0.4130    -0.9780    -1.6070 h1         1 07M       0.135000
     25 H2          -1.8080     0.2550    -1.1590 h1         1 07M       0.135000
     26 H3          -3.6820     5.7490    -5.5830 h1         1 07M       0.108500
     27 H4          -3.7220     3.8490    -5.9360 h1         1 07M       0.108500
     28 H5          -1.7030     3.1210    -4.2280 DU         1 07M       0.091000
     29 H6          -1.1290     4.2540    -3.2690 h1         1 07M       0.142000
     30 H7          -4.5090     3.5120    -6.6170 hc         1 07M       0.126000
     31 H8          -3.7110     2.4540    -5.6080 DU         1 07M       0.175000
     32 H10          2.1680    -0.3160     3.0580 h4         1 07M       0.132000
     33 H11         -0.2650    -0.0480     3.4090 ha         1 07M       0.121000
     34 H12         -1.7390    -0.1600     1.1150 ha         1 07M       0.122000
     35 H9          -3.7100    -1.6780    -4.5710 ho         1 07M       0.208000
@<TRIPOS>BOND
     1     1     2 1   
     2     1    17 1   
     3     1    21 1   
     4     2    16 1   
     5     2    24 1   
     6     2    25 1   
     7     3     4 1   
     8     3     6 1   
     9     3    26 1   
    10     3    27 1   
    11     4     5 1   
    12     5     8 1   
    13     5    28 1   
    14     5    29 1   
    15     6     7 1   
    16     6    30 1   
    17     6    31 1   
    18     7     8 1   
    19     7    12 1   
    20     7    31 1   
    21     8     9 1   
    22     8    28 1   
    23     9    10 1   
    24     9    16 1   
    25    10    11 1   
    26    11    12 1   
    27    11    15 1   
    28    12    13 1   
    29    13    14 1   
    30    15    35 1   
    31    17    18 1   
    32    17    22 1   
    33    18    19 1   
    34    19    20 1   
    35    19    32 1   
    36    20    21 1   
    37    20    33 1   
    38    21    34 1   
    39    22    23 1   
@<TRIPOS>SUBSTRUCTURE
     1 07M         1 TEMP              0 ****  ****    0 ROOT
