@<TRIPOS>MOLECULE
07M
   35    37     1     0     0
SMALL
bcc


@<TRIPOS>ATOM
      1 C1           0.0380     0.0130    -0.0810 ca         1 07M      -0.156600
      2 C2          -0.7170    -0.0220    -1.3500 c3         1 07M       0.001000
      3 C3          -2.9200     6.2170    -2.8580 c3         1 07M       0.126400
      4 O4          -2.2420     5.3080    -3.7150 os         1 07M      -0.400600
      5 C5          -1.6840     4.1980    -3.0220 c3         1 07M       0.174700
      6 C6          -4.1250     5.5630    -2.1990 c3         1 07M      -0.087100
      7 C7          -3.7880     4.2280    -1.6380 ca         1 07M       0.056700
      8 C8          -2.6230     3.5680    -2.0520 ca         1 07M      -0.264600
      9 C9          -2.3330     2.2850    -1.5200 ca         1 07M       0.547600
     10 N10         -3.1350     1.6650    -0.6260 nb         1 07M      -0.781000
     11 C11         -4.2600     2.3160    -0.2360 ca         1 07M       0.687600
     12 C12         -4.6370     3.6040    -0.7070 ca         1 07M      -0.166300
     13 C13         -5.8230     4.2240    -0.2490 cg         1 07M       0.252800
     14 N14         -6.8000     4.7280     0.1330 n1         1 07M      -0.357800
     15 O15         -5.1020     1.7210     0.6690 oh         1 07M      -0.597300
     16 S16         -0.9070     1.5690    -2.1020 ss         1 07M      -0.202400
     17 C17          1.4550    -0.0200    -0.0530 ca         1 07M       0.497300
     18 N18          2.1790     0.0090     1.0990 nb         1 07M      -0.628000
     19 C19          1.5000     0.0660     2.2540 ca         1 07M       0.400200
     20 C20          0.0930     0.0920     2.3330 ca         1 07M      -0.225300
     21 C21         -0.6370     0.0620     1.1500 ca         1 07M      -0.085000
     22 C22          2.1820    -0.0920    -1.2870 cg         1 07M       0.128800
     23 N23          2.7770    -0.1520    -2.2830 n1         1 07M      -0.337800
     24 H1          -0.1540    -0.6080    -2.1280 h1         1 07M       0.104200
     25 H2          -1.7050    -0.5260    -1.2010 h1         1 07M       0.104200
     26 H3          -2.2120     6.6130    -2.0830 h1         1 07M       0.058200
     27 H4          -3.2400     7.0480    -3.5420 h1         1 07M       0.058200
     28 H5          -1.4060     3.4770    -3.8440 h1         1 07M       0.071700
     29 H6          -0.7530     4.5310    -2.4820 h1         1 07M       0.071700
     30 H7          -4.9420     5.4290    -2.9590 hc         1 07M       0.080700
     31 H8          -4.5200     6.2370    -1.3920 hc         1 07M       0.080700
     32 H10          2.1220     0.0910     3.1680 h4         1 07M       0.035100
     33 H11         -0.4070     0.1340     3.3100 ha         1 07M       0.153000
     34 H12         -1.7380     0.0780     1.1700 ha         1 07M       0.155000
     35 H9          -4.7630     0.8400     0.9030 ho         1 07M       0.443000
@<TRIPOS>BOND
     1     1     2 1   
     2     1    17 ar  
     3     1    21 ar  
     4     2    16 1   
     5     2    24 1   
     6     2    25 1   
     7     3     4 1   
     8     3     6 1   
     9     3    26 1   
    10     3    27 1   
    11     4     5 1   
    12     5     8 1   
    13     5    28 1   
    14     5    29 1   
    15     6     7 1   
    16     6    30 1   
    17     6    31 1   
    18     7     8 ar  
    19     7    12 ar  
    20     8     9 ar  
    21     9    10 ar  
    22     9    16 1   
    23    10    11 ar  
    24    11    12 ar  
    25    11    15 1   
    26    12    13 1   
    27    13    14 3   
    28    15    35 1   
    29    17    18 ar  
    30    17    22 1   
    31    18    19 ar  
    32    19    20 ar  
    33    19    32 1   
    34    20    21 ar  
    35    20    33 1   
    36    21    34 1   
    37    22    23 3   
@<TRIPOS>SUBSTRUCTURE
     1 07M         1 TEMP              0 ****  ****    0 ROOT
