@<TRIPOS>MOLECULE
molecule
   35    37     1     0     0
SMALL
bcc


@<TRIPOS>ATOM
      1 C1           0.0000     0.0000     0.0000 ca         1 07M      -0.190600
      2 C2          -0.7640    -0.0000    -1.2990 c3         1 07M       0.013000
      3 C3          -3.5600     4.7110    -5.3000 c3         1 07M      -0.220600
      4 O4          -2.2900     4.8420    -4.6500 os         1 07M      -0.335600
      5 C5          -2.1010     3.9020    -3.5920 c3         1 07M       0.104700
      6 C6          -3.5620     3.4070    -6.1010 c3         1 07M      -0.429100
      7 C7          -3.0670     2.2790    -5.2380 ca         1 07M      -0.113300
      8 C8          -2.3870     2.5060    -4.0780 ca         1 07M      -0.068600
      9 C9          -1.9460     1.4170    -3.3200 ca         1 07M       0.513600
     10 N10         -2.1800     0.1720    -3.7070 nb         1 07M      -0.717000
     11 C11         -2.8370    -0.0940    -4.8220 ca         1 07M       0.624600
     12 C12         -3.3060     0.9520    -5.6320 ca         1 07M      -0.210300
     13 C13         -4.3710     0.5150    -6.7220 cg         1 07M       0.329800
     14 N14         -4.9060     0.2260    -7.4370 n1         1 07M      -0.359800
     15 O15         -3.0590    -1.3800    -5.1850 oh         1 07M      -0.590300
     16 S16         -1.0640     1.7070    -1.8220 ss         1 07M      -0.270400
     17 C17          1.3950     0.0000     0.0000 ca         1 07M       0.514300
     18 N18          2.0690     0.0000     1.1440 nb         1 07M      -0.665000
     19 C19          1.4540    -0.0010     2.3060 ca         1 07M       0.409200
     20 C20          0.0710    -0.0020     2.3810 ca         1 07M      -0.215300
     21 C21         -0.6730     0.0040     1.2100 ca         1 07M      -0.073000
     22 C22          2.1060     0.0010    -1.2430 cg         1 07M       0.134800
     23 N23          2.6780    -0.0150    -2.2250 n1         1 07M      -0.329800
     24 H1          -0.4130    -0.9780    -1.6070 h1         1 07M       0.121200
     25 H2          -1.8080     0.2550    -1.1590 h1         1 07M       0.121200
     26 H3          -3.6820     5.7490    -5.5830 h1         1 07M       0.238700
     27 H4          -3.7220     3.8490    -5.9360 h1         1 07M       0.238700
     28 H5          -1.7030     3.1210    -4.2280 h1         1 07M       0.117200
     29 H6          -1.1290     4.2540    -3.2690 h1         1 07M       0.117200
     30 H7          -4.5090     3.5120    -6.6170 hc         1 07M       0.207700
     31 H8          -3.7110     2.4540    -5.6080 hc         1 07M       0.207700
     32 H10          2.1680    -0.3160     3.0580 h4         1 07M       0.042100
     33 H11         -0.2650    -0.0480     3.4090 ha         1 07M       0.152000
     34 H12         -1.7390    -0.1600     1.1150 ha         1 07M       0.154000
     35 H9          -3.7100    -1.6780    -4.5710 ho         1 07M       0.427000
@<TRIPOS>BOND
     1    23    22 3   
     2    22    17 1   
     3    18    17 ar  
     4    18    19 ar  
     5    17     1 ar  
     6    19    20 ar  
     7     1     2 1   
     8     1    21 ar  
     9     2    16 1   
    10    16     9 1   
    11    20    21 ar  
    12     5     4 1   
    13     5     8 1   
    14     9     8 ar  
    15     9    10 ar  
    16     4     3 1   
    17     8     7 ar  
    18    10    11 ar  
    19     3     6 1   
    20     7     6 1   
    21     7    12 ar  
    22    11    15 1   
    23    11    12 ar  
    24    12    13 1   
    25    13    14 3   
    26     2    24 1   
    27     2    25 1   
    28     3    26 1   
    29     3    27 1   
    30     5    28 1   
    31     5    29 1   
    32     6    30 1   
    33     6    31 1   
    34    19    32 1   
    35    20    33 1   
    36    21    34 1   
    37    15    35 1   
@<TRIPOS>SUBSTRUCTURE
     1 07M         1 TEMP              0 ****  ****    0 ROOT
