@<TRIPOS>MOLECULE
molecule
   40    42     1     0     0
SMALL
bcc


@<TRIPOS>ATOM
      1 C1           0.0000     0.0000     0.0000 c3         1 07N      -0.024800
      2 Cl1          5.0350    -0.0030     1.6950 cl         1 07N      -0.039400
      3 C2           1.5070     0.0000     0.0000 cc         1 07N      -0.077600
      4 Cl2          1.7460     0.0020     2.7500 cl         1 07N      -0.078400
      5 C3           2.2940     0.0000     1.1030 cd         1 07N      -0.056600
      6 C4           3.6280    -0.0020     0.6780 cd         1 07N       0.037400
      7 C5           3.6130    -0.0040    -0.7020 cc         1 07N      -0.174900
      8 N6           2.2950    -0.0080    -1.1030 na         1 07N      -0.139100
      9 C8           4.7870    -0.0060    -1.5810 c          1 07N       0.697700
     10 O9           5.9060    -0.0070    -1.1020 o          1 07N      -0.583100
     11 N10          4.6260    -0.0070    -2.9190 ns         1 07N      -0.576900
     12 C11          5.7980    -0.0090    -3.7970 c3         1 07N       0.088700
     13 C13          5.4240     0.6000    -5.1520 c3         1 07N      -0.100400
     14 C14          6.6360     0.5390    -6.0850 c3         1 07N       0.179800
     15 N15          7.0550    -0.8580    -6.2560 nh         1 07N      -0.666300
     16 C16          7.4630    -1.4500    -4.9760 c3         1 07N       0.137800
     17 C17          6.2760    -1.4480    -4.0080 c3         1 07N       0.159600
     18 F19          5.2350    -2.2120    -4.5470 f          1 07N      -0.241300
     19 C20          8.0610    -0.9610    -7.1910 cd         1 07N       0.539300
     20 N21          8.5800     0.0440    -7.8370 nc         1 07N      -0.748000
     21 C22          9.5310    -0.2220    -8.6940 cc         1 07N       0.362200
     22 C23          9.8440    -1.5510    -8.7850 cd         1 07N      -0.112000
     23 S24          8.8070    -2.4260    -7.6610 ss         1 07N      -0.182300
     24 C25         10.8300    -2.1220    -9.6290 c          1 07N       0.899200
     25 O26         11.0160    -3.3240    -9.6200 o          1 07N      -0.825800
     26 O27         11.5620    -1.3310   -10.4420 o          1 07N      -0.825800
     27 H1          -0.3610     0.0190    -1.0210 hc         1 07N       0.054033
     28 H1A         -0.3610     0.8750     0.5270 hc         1 07N       0.054033
     29 H1B         -0.3610    -0.8940     0.4940 hc         1 07N       0.054033
     30 HN10         3.7060     0.0190    -3.3120 hn         1 07N       0.306500
     31 H11          6.5940     0.5730    -3.3480 h1         1 07N       0.090700
     32 H13          4.6060     0.0390    -5.5870 hc         1 07N       0.053200
     33 H13A         5.1280     1.6330    -5.0140 hc         1 07N       0.053200
     34 H14          6.3690     0.9540    -7.0490 h1         1 07N       0.060200
     35 H14A         7.4510     1.1080    -5.6540 h1         1 07N       0.060200
     36 H16          7.7920    -2.4690    -5.1390 h1         1 07N       0.061700
     37 H16A         8.2730    -0.8680    -4.5520 h1         1 07N       0.061700
     38 H17          6.5850    -1.8680    -3.0590 h1         1 07N       0.070700
     39 H22         10.0260     0.5410    -9.2830 h4         1 07N       0.061100
     40 HN6          1.9730    -0.0100    -2.0510 hn         1 07N       0.307700
@<TRIPOS>BOND
     1     1     3 1
     2     1    27 1
     3     1    28 1
     4     1    29 1
     5     2     6 1
     6     3     5 2
     7     3     8 1
     8     4     5 1
     9     5     6 1
    10     6     7 2
    11     7     8 1
    12     7     9 1
    13    11     9 1
    14     9    10 2
    15    11    12 1
    16    11    30 1
    17    17    12 1
    18    12    13 1
    19    12    31 1
    20    13    14 1
    21    13    32 1
    22    13    33 1
    23    15    14 1
    24    14    34 1
    25    14    35 1
    26    19    15 1
    27    16    15 1
    28    17    16 1
    29    16    36 1
    30    16    37 1
    31    18    17 1
    32    17    38 1
    33    20    19 2
    34    19    23 1
    35    21    20 1
    36    21    22 2
    37    21    39 1
    38    22    24 1
    39    22    23 1
    40    25    24 1
    41    24    26 1
    42     8    40 1
@<TRIPOS>SUBSTRUCTURE
     1 07N         1 TEMP              0 ****  ****    0 ROOT
