@<TRIPOS>MOLECULE
07N
   41    43     1     0     0
SMALL
bcc


@<TRIPOS>ATOM
      1 C1           2.9640    -2.2990     1.6240 c3         1 07N      -0.049800
      2 Cl1          6.3060     1.6840     0.6010 cl         1 07N      -0.027400
      3 C2           3.8790    -1.3680     0.9400 cc         1 07N      -0.035600
      4 Cl2          4.4180     0.3220     3.0470 cl         1 07N      -0.022400
      5 C3           4.5440    -0.2390     1.4840 cd         1 07N      -0.073600
      6 C4           5.3450     0.3290     0.4430 cd         1 07N       0.004400
      7 C5           5.1530    -0.4620    -0.7140 cc         1 07N      -0.206900
      8 N6           4.2560    -1.4850    -0.3850 na         1 07N      -0.120100
      9 C8           5.6960    -0.3550    -2.0820 c          1 07N       0.710700
     10 O9           5.2240    -1.0650    -3.0040 o          1 07N      -0.659100
     11 N10          6.7940     0.4650    -2.2700 ns         1 07N      -0.555900
     12 C11          7.1560     1.1030    -3.5190 c3         1 07N       0.080700
     13 C13          7.1300     0.2390    -4.7860 c3         1 07N      -0.135400
     14 C14          8.4560    -0.4720    -5.0550 c3         1 07N      -0.020700
     15 N15          9.3330    -0.6720    -3.9120 nh         1 07N      -0.144400
     16 C16          9.6420     0.5650    -3.2050 c3         1 07N      -0.031700
     17 C17          8.6000     1.6970    -3.4110 c3         1 07N       0.137600
     18 F19          8.6970     2.6200    -2.3870 f          1 07N      -0.225300
     19 C20          9.0610    -1.7860    -3.0940 cc         1 07N      -0.009400
     20 N21          7.8550    -2.4570    -2.9960 na         1 07N      -0.136100
     21 C22          7.9630    -3.5850    -2.1960 cc         1 07N      -0.094300
     22 C23          9.2330    -3.7390    -1.6680 cd         1 07N      -0.198700
     23 S24         10.2680    -2.5550    -2.1850 ss         1 07N       0.318200
     24 C25          9.6020    -4.8950    -0.7050 c          1 07N       0.956200
     25 O26         10.7890    -4.9020    -0.3120 o          1 07N      -0.757300
     26 O27          8.6630    -5.6760    -0.4400 o          1 07N      -0.757300
     27 H1           2.5550    -1.8110     2.5440 hc         1 07N       0.068367
     28 H1A          3.5170    -3.2250     1.9290 hc         1 07N       0.068367
     29 H1B          2.1100    -2.5950     0.9660 hc         1 07N       0.068367
     30 HN10         7.0110    -2.1750    -3.4580 hn         1 07N       0.342700
     31 H11          6.4480     1.9730    -3.6870 h1         1 07N       0.064700
     32 H13          6.9220     0.9240    -5.6520 hc         1 07N       0.084200
     33 H13A         6.2860    -0.4980    -4.7550 hc         1 07N       0.084200
     34 H14          9.0620     0.1450    -5.7830 h1         1 07N       0.073700
     35 H14A         8.2580    -1.4650    -5.5470 h1         1 07N       0.073700
     36 H16         10.6300     0.9220    -3.6150 h1         1 07N       0.081700
     37 H16A         9.7670     0.3830    -2.1010 h1         1 07N       0.081700
     38 H17          8.8110     2.2280    -4.3840 h1         1 07N       0.075700
     39 H22          7.1070    -4.2550    -2.0250 h4         1 07N       0.232000
     40 HN6          3.9380    -2.1650    -1.0310 hn         1 07N       0.323700
     41 H102         7.0960     0.9890    -1.4690 hn         1 07N       0.329500
@<TRIPOS>BOND
     1     1     3 1   
     2     1    27 1   
     3     1    28 1   
     4     1    29 1   
     5     2     6 1   
     6     3     5 2   
     7     3     8 1   
     8     4     5 1   
     9     5     6 1   
    10     6     7 2   
    11     7     8 1   
    12     7     9 1   
    13     8    40 1   
    14     9    10 2   
    15     9    11 1   
    16    11    12 1   
    17    11    41 1   
    18    12    13 1   
    19    12    17 1   
    20    12    31 1   
    21    13    14 1   
    22    13    32 1   
    23    13    33 1   
    24    14    15 1   
    25    14    34 1   
    26    14    35 1   
    27    15    16 1   
    28    15    19 2   
    29    16    17 1   
    30    16    36 1   
    31    16    37 1   
    32    17    18 1   
    33    17    38 1   
    34    19    20 1   
    35    19    23 1   
    36    20    21 1   
    37    20    30 1   
    38    21    22 2   
    39    21    39 1   
    40    22    23 1   
    41    22    24 1   
    42    24    25 1   
    43    24    26 1   
@<TRIPOS>SUBSTRUCTURE
     1 07N         1 TEMP              0 ****  ****    0 ROOT
