@<TRIPOS>MOLECULE
molecule
   43    45     1     0     0
SMALL
bcc


@<TRIPOS>ATOM
      1 O01          0.0000     0.0000     0.0000 o          1 07Q      -0.639100
      2 C02          1.2160     0.0000     0.0000 c          1 07Q       0.782100
      3 N03          1.8890     0.0000     1.1680 ns         1 07Q      -0.586900
      4 C04          1.1560     0.0010     2.4360 c3         1 07Q       0.181000
      5 C05          0.7930     1.4380     2.8140 c3         1 07Q      -0.106100
      6 C06          2.0210    -0.5990     3.5150 ca         1 07Q      -0.066300
      7 C07          3.3710    -0.3060     3.5620 ca         1 07Q      -0.170000
      8 C08          4.1670    -0.8550     4.5510 ca         1 07Q      -0.083000
      9 C09          3.6130    -1.6980     5.4950 ca         1 07Q      -0.218000
     10 C10          2.2580    -1.9940     5.4510 ca         1 07Q       0.149100
     11 O11          1.7120    -2.8220     6.3790 os         1 07Q      -0.325900
     12 C12          2.5910    -3.3530     7.3720 c3         1 07Q       0.128700
     13 C13          1.4610    -1.4370     4.4600 ca         1 07Q      -0.146000
     14 N14          1.8900    -0.0060    -1.1670 ns         1 07Q      -0.532400
     15 C15          1.1960    -0.0120    -2.3700 cc         1 07Q       0.592300
     16 N16          1.7370    -0.0240    -3.5480 nd         1 07Q      -0.741000
     17 C17          0.9150    -0.0280    -4.5890 cd         1 07Q       0.439800
     18 C18          1.4080    -0.0410    -5.9870 ca         1 07Q      -0.079500
     19 C19          2.7780    -0.0500    -6.2660 ca         1 07Q      -0.236300
     20 C20          3.1930    -0.0620    -7.5810 ca         1 07Q       0.415200
     21 N21          2.3160    -0.0660    -8.5680 nb         1 07Q      -0.693000
     22 C22          1.0150    -0.0590    -8.3480 ca         1 07Q       0.415200
     23 C23          0.5140    -0.0530    -7.0630 ca         1 07Q      -0.236300
     24 C24         -0.3970    -0.0210    -4.2880 cc         1 07Q      -0.227400
     25 S25         -0.5580    -0.0140    -2.5330 ss         1 07Q      -0.102300
     26 H1           2.8900    -0.0340     1.1680 hn         1 07Q       0.317500
     27 H2           0.2510    -0.5850     2.3310 h1         1 07Q       0.089700
     28 H3          -0.0990     1.7390     2.2770 hc         1 07Q       0.049033
     29 H4           1.6110     2.0980     2.5520 hc         1 07Q       0.049033
     30 H5           0.6090     1.4960     3.8800 hc         1 07Q       0.049033
     31 H6           3.8060     0.3550     2.8230 ha         1 07Q       0.125000
     32 H7           5.2250    -0.6240     4.5850 ha         1 07Q       0.133000
     33 H8           4.2360    -2.1270     6.2700 ha         1 07Q       0.138000
     34 H9           3.0350    -2.5400     7.9340 h1         1 07Q       0.043367
     35 H10          2.0320    -3.9930     8.0440 h1         1 07Q       0.043367
     36 H11          3.3720    -3.9300     6.8920 h1         1 07Q       0.043367
     37 H12          0.4030    -1.6660     4.4230 ha         1 07Q       0.150000
     38 H13          2.8900    -0.0400    -1.1660 hn         1 07Q       0.338500
     39 H14          3.5030    -0.0470    -5.4610 ha         1 07Q       0.146500
     40 H15          4.2520    -0.0690    -7.8070 h4         1 07Q       0.022100
     41 H16          0.3310    -0.0650    -9.1880 h4         1 07Q       0.022100
     42 H17         -0.5550    -0.0470    -6.8890 ha         1 07Q       0.146500
     43 H18         -1.2120    -0.0230    -5.0000 h4         1 07Q       0.181000
@<TRIPOS>BOND
     1    11    12 1   
     2    11    10 1   
     3    10     9 ar  
     4    10    13 ar  
     5     9     8 ar  
     6    13     6 ar  
     7     8     7 ar  
     8     6     7 ar  
     9     6     4 1   
    10     4     3 1   
    11     4     5 1   
    12     3     2 1   
    13     2     1 2   
    14     2    14 1   
    15    14    15 1   
    16    15    25 1   
    17    15    16 2   
    18    25    24 1   
    19    16    17 1   
    20    24    17 2   
    21    17    18 1   
    22    18    19 ar  
    23    18    23 ar  
    24    19    20 ar  
    25    23    22 ar  
    26    20    21 ar  
    27    22    21 ar  
    28     3    26 1   
    29     4    27 1   
    30     5    28 1   
    31     5    29 1   
    32     5    30 1   
    33     7    31 1   
    34     8    32 1   
    35     9    33 1   
    36    12    34 1   
    37    12    35 1   
    38    12    36 1   
    39    13    37 1   
    40    14    38 1   
    41    19    39 1   
    42    20    40 1   
    43    22    41 1   
    44    23    42 1   
    45    24    43 1   
@<TRIPOS>SUBSTRUCTURE
     1 07Q         1 TEMP              0 ****  ****    0 ROOT
