@<TRIPOS>MOLECULE
07Q
   44    46     1     0     0
SMALL
bcc


@<TRIPOS>ATOM
      1 O01         -1.3010     0.1070    -2.1140 o          1 07Q      -0.444100
      2 C02         -0.4070     0.2600    -1.2830 c          1 07Q       0.626100
      3 N03         -0.7230    -0.3440     0.0850 ny         1 07Q      -0.680800
      4 C04          0.1980    -1.4970     0.4430 c3         1 07Q       0.203800
      5 C05          0.1630    -2.5890    -0.6170 c3         1 07Q      -0.130100
      6 C06         -0.1910    -2.0160     1.7960 ca         1 07Q      -0.146300
      7 C07         -1.4190    -2.6520     1.9840 ca         1 07Q      -0.151000
      8 C08         -1.7610    -3.1440     3.2480 ca         1 07Q      -0.085000
      9 C09         -0.8890    -3.0100     4.3180 ca         1 07Q      -0.110000
     10 C10          0.3550    -2.3700     4.1200 ca         1 07Q       0.148100
     11 O11          1.1420    -2.2860     5.2420 os         1 07Q      -0.305900
     12 C12          2.4500    -1.7450     5.0750 c3         1 07Q       0.106700
     13 C13          0.7050    -1.8640     2.8630 ca         1 07Q      -0.190000
     14 N14          0.7570     1.0250    -1.4050 ns         1 07Q      -0.428400
     15 C15          1.3100     1.1080    -2.7100 cc         1 07Q       0.322300
     16 N16          1.7850     0.0360    -3.3970 nd         1 07Q      -0.623000
     17 C17          2.2710     0.4700    -4.6140 cd         1 07Q       0.422800
     18 C18          2.8620    -0.4420    -5.5880 ca         1 07Q      -0.105500
     19 C19          2.3970    -1.7560    -5.7310 ca         1 07Q      -0.223300
     20 C20          3.0030    -2.5780    -6.7000 ca         1 07Q       0.400700
     21 N21          4.0100    -2.1730    -7.4980 nb         1 07Q      -0.639000
     22 C22          4.4470    -0.9080    -7.3470 ca         1 07Q       0.400700
     23 C23          3.9110    -0.0050    -6.4110 ca         1 07Q      -0.223300
     24 C24          2.1450     1.8580    -4.8170 cc         1 07Q      -0.264400
     25 S25          1.4310     2.6010    -3.5380 ss         1 07Q       0.153700
     26 H1          -1.6900    -0.6990     0.0430 hn         1 07Q       0.464800
     27 H2           1.2430    -1.0630     0.4860 hx         1 07Q       0.091700
     28 H3          -0.8510    -3.0500    -0.7040 hc         1 07Q       0.084367
     29 H4           0.4750    -2.1970    -1.6170 hc         1 07Q       0.084367
     30 H5           0.8830    -3.3900    -0.3090 hc         1 07Q       0.084367
     31 H6          -2.1160    -2.7930     1.1450 ha         1 07Q       0.136000
     32 H7          -2.7310    -3.6490     3.3910 ha         1 07Q       0.162000
     33 H8          -1.1410    -3.3970     5.3180 ha         1 07Q       0.177000
     34 H9           2.8950    -1.8360     6.1000 h1         1 07Q       0.056033
     35 H10          2.3930    -0.6740     4.7640 h1         1 07Q       0.056033
     36 H11          3.0340    -2.3440     4.3350 h1         1 07Q       0.056033
     37 H12          1.6770    -1.3740     2.7090 ha         1 07Q       0.144000
     38 H13          1.4570     0.9050    -0.6940 hn         1 07Q       0.324500
     39 H14          1.5770    -2.1440    -5.1130 ha         1 07Q       0.148000
     40 H15          2.6630    -3.6190    -6.8470 h4         1 07Q       0.035600
     41 H16          5.2750    -0.6030    -8.0140 h4         1 07Q       0.035600
     42 H17          4.3140     1.0120    -6.3300 ha         1 07Q       0.148000
     43 H18          2.4770     2.3650    -5.7260 h4         1 07Q       0.211000
     44 H032        -0.6720     0.3660     0.8210 hn         1 07Q       0.464800
@<TRIPOS>BOND
     1     1     2 2   
     2     2     3 1   
     3     2    14 1   
     4     3     4 1   
     5     3    26 1   
     6     3    44 1   
     7     4     5 1   
     8     4     6 1   
     9     4    27 1   
    10     5    28 1   
    11     5    29 1   
    12     5    30 1   
    13     6     7 ar  
    14     6    13 ar  
    15     7     8 ar  
    16     7    31 1   
    17     8     9 ar  
    18     8    32 1   
    19     9    10 ar  
    20     9    33 1   
    21    10    11 1   
    22    10    13 ar  
    23    11    12 1   
    24    12    34 1   
    25    12    35 1   
    26    12    36 1   
    27    13    37 1   
    28    14    15 1   
    29    14    38 1   
    30    15    16 2   
    31    15    25 1   
    32    16    17 1   
    33    17    18 1   
    34    17    24 2   
    35    18    19 ar  
    36    18    23 ar  
    37    19    20 ar  
    38    19    39 1   
    39    20    21 ar  
    40    20    40 1   
    41    21    22 ar  
    42    22    23 ar  
    43    22    41 1   
    44    23    42 1   
    45    24    25 1   
    46    24    43 1   
@<TRIPOS>SUBSTRUCTURE
     1 07Q         1 TEMP              0 ****  ****    0 ROOT
