@<TRIPOS>MOLECULE
molecule
   37    39     1     0     0
SMALL
bcc


@<TRIPOS>ATOM
      1 O01          0.0000     0.0000     0.0000 o          1 07R      -0.637100
      2 C02          1.2160     0.0000     0.0000 c          1 07R       0.780100
      3 N03          1.8910     0.0000     1.1670 ns         1 07R      -0.589900
      4 C04          1.1580     0.0000     2.4360 c3         1 07R       0.178300
      5 C05          2.1380     0.0010     3.5810 ca         1 07R      -0.112300
      6 C06          2.5880     1.1970     4.1050 ca         1 07R      -0.139000
      7 C07          3.4900     1.1960     5.1590 ca         1 07R       0.104100
      8 O08          3.9330     2.3720     5.6760 oh         1 07R      -0.518100
      9 C09          3.9390    -0.0060     5.6830 ca         1 07R      -0.140000
     10 C10          3.4870    -1.2010     5.1560 ca         1 07R      -0.117000
     11 C11          2.5830    -1.1980     4.1090 ca         1 07R      -0.119000
     12 N12          1.8890    -0.0060    -1.1680 ns         1 07R      -0.533400
     13 C13          1.1940    -0.0130    -2.3710 cc         1 07R       0.591300
     14 N14          1.7350    -0.0180    -3.5480 nd         1 07R      -0.740000
     15 C15          0.9120    -0.0230    -4.5890 cd         1 07R       0.439800
     16 C16          1.4030    -0.0310    -5.9870 ca         1 07R      -0.079500
     17 C17          0.5090    -0.0320    -7.0620 ca         1 07R      -0.236300
     18 C18          1.0100    -0.0390    -8.3480 ca         1 07R       0.415200
     19 N19          2.3100    -0.0450    -8.5690 nb         1 07R      -0.693000
     20 C20          3.1870    -0.0460    -7.5830 ca         1 07R       0.415200
     21 C21          2.7740    -0.0330    -6.2670 ca         1 07R      -0.236300
     22 C22         -0.3990    -0.0220    -4.2870 cc         1 07R      -0.226400
     23 S23         -0.5600    -0.0210    -2.5320 ss         1 07R      -0.102300
     24 H1           2.8910     0.0380     1.1670 hn         1 07R       0.317500
     25 H2           0.5350     0.8850     2.4930 h1         1 07R       0.064700
     26 H3           0.5360    -0.8840     2.4940 h1         1 07R       0.064700
     27 H4           2.2040     2.1350     3.7210 ha         1 07R       0.147000
     28 H5           4.6830     2.6680     5.1870 ho         1 07R       0.421000
     29 H6           4.6450    -0.0090     6.5050 ha         1 07R       0.145000
     30 H7           3.8360    -2.1400     5.5670 ha         1 07R       0.138000
     31 H8           2.2300    -2.1350     3.6980 ha         1 07R       0.138000
     32 H9           2.8900    -0.0060    -1.1680 hn         1 07R       0.338500
     33 H10         -0.5600    -0.0260    -6.8890 ha         1 07R       0.147000
     34 H11          0.3250    -0.0390    -9.1870 h4         1 07R       0.022600
     35 H12          4.2470    -0.0490    -7.8100 h4         1 07R       0.022600
     36 H13          3.4990    -0.0340    -5.4630 ha         1 07R       0.147000
     37 H14         -1.2150    -0.0260    -5.0000 h4         1 07R       0.182000
@<TRIPOS>BOND
     1     8     7 1   
     2     9     7 ar  
     3     9    10 ar  
     4     7     6 ar  
     5    10    11 ar  
     6     6     5 ar  
     7    11     5 ar  
     8     5     4 1   
     9     4     3 1   
    10     3     2 1   
    11     2     1 2   
    12     2    12 1   
    13    12    13 1   
    14    13    14 2   
    15    13    23 1   
    16    14    15 1   
    17    23    22 1   
    18    15    22 2   
    19    15    16 1   
    20    17    16 ar  
    21    17    18 ar  
    22    16    21 ar  
    23    18    19 ar  
    24    21    20 ar  
    25    19    20 ar  
    26     3    24 1   
    27     4    25 1   
    28     4    26 1   
    29     6    27 1   
    30     8    28 1   
    31     9    29 1   
    32    10    30 1   
    33    11    31 1   
    34    12    32 1   
    35    17    33 1   
    36    18    34 1   
    37    20    35 1   
    38    21    36 1   
    39    22    37 1   
@<TRIPOS>SUBSTRUCTURE
     1 07R         1 TEMP              0 ****  ****    0 ROOT
