@<TRIPOS>MOLECULE
07R
   37    39     1     0     0
SMALL
bcc


@<TRIPOS>ATOM
      1 O01          0.0000     0.0000     0.0000 o          1 07R      -0.666100
      2 C02          1.2160     0.0000     0.0000 c          1 07R       0.547100
      3 N03          1.8910     0.0000     1.1670 ns         1 07R      -0.201900
      4 C04          1.1580     0.0000     2.4360 c3         1 07R       0.125300
      5 C05          2.1380     0.0010     3.5810 ca         1 07R      -0.112300
      6 C06          2.5880     1.1970     4.1050 ca         1 07R      -0.126000
      7 C07          3.4900     1.1960     5.1590 ca         1 07R       0.126100
      8 O08          3.9330     2.3720     5.6760 oh         1 07R      -0.497100
      9 C09          3.9390    -0.0060     5.6830 ca         1 07R      -0.126000
     10 C10          3.4870    -1.2010     5.1560 ca         1 07R      -0.081000
     11 C11          2.5830    -1.1980     4.1090 ca         1 07R      -0.100000
     12 N12          1.8890    -0.0060    -1.1680 ns         1 07R      -0.074400
     13 C13          1.1940    -0.0130    -2.3710 cc         1 07R       0.446300
     14 N14          1.7350    -0.0180    -3.5480 nd         1 07R      -0.623000
     15 C15          0.9120    -0.0230    -4.5890 cd         1 07R       0.403800
     16 C16          1.4030    -0.0310    -5.9870 ca         1 07R      -0.091500
     17 C17          0.5090    -0.0320    -7.0620 ca         1 07R      -0.208300
     18 C18          1.0100    -0.0390    -8.3480 ca         1 07R       0.400700
     19 N19          2.3100    -0.0450    -8.5690 nb         1 07R      -0.584000
     20 C20          3.1870    -0.0460    -7.5830 ca         1 07R       0.400700
     21 C21          2.7740    -0.0330    -6.2670 ca         1 07R      -0.208300
     22 C22         -0.3990    -0.0220    -4.2870 cc         1 07R      -0.147400
     23 S23         -0.5600    -0.0210    -2.5320 ss         1 07R      -0.234300
     24 H1           2.8910     0.0380     1.1670 hn         1 07R       0.173500
     25 H2           0.5350     0.8850     2.4930 h1         1 07R       0.033200
     26 H3           0.5360    -0.8840     2.4940 h1         1 07R       0.033200
     27 H4           2.2040     2.1350     3.7210 ha         1 07R       0.120000
     28 H5           4.6830     2.6680     5.1870 ho         1 07R       0.403000
     29 H6           4.6450    -0.0090     6.5050 ha         1 07R       0.116000
     30 H7           3.8360    -2.1400     5.5670 ha         1 07R       0.107000
     31 H8           2.2300    -2.1350     3.6980 ha         1 07R       0.111000
     32 H9           2.8900    -0.0060    -1.1680 hn         1 07R       0.170500
     33 H10         -0.5600    -0.0260    -6.8890 ha         1 07R       0.122000
     34 H11          0.3250    -0.0390    -9.1870 h4         1 07R      -0.020900
     35 H12          4.2470    -0.0490    -7.8100 h4         1 07R      -0.020900
     36 H13          3.4990    -0.0340    -5.4630 ha         1 07R       0.122000
     37 H14         -1.2150    -0.0260    -5.0000 h4         1 07R       0.164000
@<TRIPOS>BOND
     1     1     2 2   
     2     2     3 1   
     3     2    12 1   
     4     3     4 1   
     5     3    24 1   
     6     4     5 1   
     7     4    25 1   
     8     4    26 1   
     9     5     6 ar  
    10     5    11 ar  
    11     6     7 ar  
    12     6    27 1   
    13     7     8 1   
    14     7     9 ar  
    15     8    28 1   
    16     9    10 ar  
    17     9    29 1   
    18    10    11 ar  
    19    10    30 1   
    20    11    31 1   
    21    12    13 1   
    22    12    32 1   
    23    13    14 2   
    24    13    23 1   
    25    14    15 1   
    26    15    16 1   
    27    15    22 2   
    28    16    17 ar  
    29    16    21 ar  
    30    17    18 ar  
    31    17    33 1   
    32    18    19 ar  
    33    18    34 1   
    34    19    20 ar  
    35    20    21 ar  
    36    20    35 1   
    37    21    36 1   
    38    22    23 1   
    39    22    37 1   
@<TRIPOS>SUBSTRUCTURE
     1 07R         1 TEMP              0 ****  ****    0 ROOT
