@<TRIPOS>MOLECULE
07R
   38    40     1     0     0
SMALL
bcc


@<TRIPOS>ATOM
      1 O01         -1.1150     0.1370    -0.5680 o          1 07R      -0.439100
      2 C02          0.0860     0.1140    -0.3040 c          1 07R       0.626100
      3 N03          0.3820    -0.1430     1.1780 ny         1 07R      -0.678800
      4 C04          0.9850    -1.5000     1.3920 c3         1 07R       0.174100
      5 C05          1.2050    -1.7570     2.8440 ca         1 07R      -0.152300
      6 C06          2.2910    -1.1530     3.4850 ca         1 07R      -0.156000
      7 C07          2.5120    -1.4220     4.8450 ca         1 07R       0.147100
      8 O08          3.5850    -0.7900     5.4150 oh         1 07R      -0.482100
      9 C09          1.6590    -2.2880     5.5530 ca         1 07R      -0.164000
     10 C10          0.5870    -2.8790     4.8930 ca         1 07R      -0.076000
     11 C11          0.3500    -2.6140     3.5420 ca         1 07R      -0.128000
     12 N12          1.1630     0.4220    -1.1390 ns         1 07R      -0.423400
     13 C13          0.9930     0.0990    -2.5110 cc         1 07R       0.317300
     14 N14          0.8970    -1.1740    -2.9770 nd         1 07R      -0.620000
     15 C15          0.7540    -1.1350    -4.3480 cd         1 07R       0.423800
     16 C16          0.6220    -2.3440    -5.1550 ca         1 07R      -0.106500
     17 C17          1.2680    -3.5350    -4.7950 ca         1 07R      -0.222300
     18 C18          1.1080    -4.6590    -5.6260 ca         1 07R       0.400700
     19 N19          0.3660    -4.6580    -6.7490 nb         1 07R      -0.639000
     20 C20         -0.2500    -3.5070    -7.0820 ca         1 07R       0.400700
     21 C21         -0.1550    -2.3270    -6.3220 ca         1 07R      -0.222300
     22 C22          0.7470     0.1690    -4.8840 cc         1 07R      -0.265400
     23 S23          0.9010     1.3110    -3.7150 ss         1 07R       0.159700
     24 H1           1.0040     0.5740     1.5650 hn         1 07R       0.465300
     25 H2           1.9640    -1.5390     0.8330 hx         1 07R       0.111700
     26 H3           0.2800    -2.2620     0.9450 hx         1 07R       0.111700
     27 H4           2.9900    -0.4950     2.9490 ha         1 07R       0.149000
     28 H5           3.6630    -1.0820     6.3380 ho         1 07R       0.443000
     29 H6           1.8450    -2.4980     6.6180 ha         1 07R       0.162000
     30 H7          -0.0820    -3.5640     5.4390 ha         1 07R       0.164000
     31 H8          -0.4980    -3.0970     3.0320 ha         1 07R       0.149000
     32 H9           2.0830     0.2020    -0.7960 hn         1 07R       0.326500
     33 H10          1.8870    -3.6000    -3.8910 ha         1 07R       0.148500
     34 H11          1.6030    -5.6170    -5.3780 h4         1 07R       0.035600
     35 H12         -0.8540    -3.5340    -8.0080 h4         1 07R       0.035600
     36 H13         -0.6880    -1.4210    -6.6390 ha         1 07R       0.148500
     37 H14          0.6590     0.3780    -5.9530 h4         1 07R       0.211000
     38 H032        -0.5160    -0.0920     1.6810 hn         1 07R       0.465300
@<TRIPOS>BOND
     1     1     2 2   
     2     2     3 1   
     3     2    12 1   
     4     3     4 1   
     5     3    24 1   
     6     3    38 1   
     7     4     5 1   
     8     4    25 1   
     9     4    26 1   
    10     5     6 ar  
    11     5    11 ar  
    12     6     7 ar  
    13     6    27 1   
    14     7     8 1   
    15     7     9 ar  
    16     8    28 1   
    17     9    10 ar  
    18     9    29 1   
    19    10    11 ar  
    20    10    30 1   
    21    11    31 1   
    22    12    13 1   
    23    12    32 1   
    24    13    14 2   
    25    13    23 1   
    26    14    15 1   
    27    15    16 1   
    28    15    22 2   
    29    16    17 ar  
    30    16    21 ar  
    31    17    18 ar  
    32    17    33 1   
    33    18    19 ar  
    34    18    34 1   
    35    19    20 ar  
    36    20    21 ar  
    37    20    35 1   
    38    21    36 1   
    39    22    23 1   
    40    22    37 1   
@<TRIPOS>SUBSTRUCTURE
     1 07R         1 TEMP              0 ****  ****    0 ROOT
