@<TRIPOS>MOLECULE
molecule
   60    64     1     0     0
SMALL
bcc


@<TRIPOS>ATOM
      1 C1           0.0000     0.0000     0.0000 ca         1 07S       0.411200
      2 C2           1.3840     0.0000     0.0000 ca         1 07S      -0.246300
      3 C3           2.0610     0.0000     1.2070 ca         1 07S      -0.096000
      4 C4           1.3100     0.0000     2.3890 ca         1 07S      -0.109300
      5 C5          -0.0830     0.0000     2.3030 ca         1 07S       0.425200
      6 N6          -0.6820     0.0060     1.1290 nb         1 07S      -0.682000
      7 C11          1.9810    -0.0070     3.7050 cc         1 07S      -0.130400
      8 S12          3.7210    -0.0070     3.9810 ss         1 07S      -0.237300
      9 C13          3.4660    -0.0160     5.6710 cd         1 07S       0.706300
     10 N14          2.1940    -0.0180     5.9350 nc         1 07S      -0.684000
     11 C15          1.3700    -0.0070     4.9070 cc         1 07S       0.416200
     12 N16          4.4710    -0.0210     6.6240 nu         1 07S      -0.845600
     13 C17          4.1500     0.0810     7.9750 ca         1 07S       0.694200
     14 N18          2.8790     0.0700     8.3490 nb         1 07S      -0.704000
     15 C19          2.5270     0.1630     9.6190 ca         1 07S       0.477200
     16 C20          3.4760     0.2770    10.6110 ca         1 07S      -0.348300
     17 C21          4.8290     0.2910    10.2620 ca         1 07S       0.170600
     18 C22          5.1650     0.1840     8.9160 ca         1 07S      -0.330300
     19 N26          5.8150     0.4040    11.2370 nh         1 07S      -0.601000
     20 C27          5.2230     0.4960    12.5790 c3         1 07S       0.169300
     21 C28          6.3330     0.6980    13.6130 c3         1 07S       0.157300
     22 N29          7.2820    -0.4230    13.5340 n3         1 07S      -0.709600
     23 C30          7.8740    -0.5150    12.1930 c3         1 07S       0.157300
     24 C31          6.7630    -0.7170    11.1590 c3         1 07S       0.169300
     25 C40          8.3230    -0.3030    14.5630 c3         1 07S       0.091800
     26 C41          9.1240    -1.5780    14.6160 c          1 07S       0.664100
     27 N44         10.1410    -1.6990    15.4930 n          1 07S      -0.498800
     28 C45         10.9380    -2.9340    15.5630 c3         1 07S       0.068000
     29 C46         12.4220    -2.5560    15.4950 c3         1 07S       0.119900
     30 O47         12.7010    -1.5640    16.4850 os         1 07S      -0.417600
     31 C48         11.9930    -0.3350    16.2980 c3         1 07S       0.119900
     32 C49         10.4910    -0.5980    16.4040 c3         1 07S       0.068000
     33 O58          8.8540    -2.4960    13.8700 o          1 07S      -0.592100
     34 H1          -0.5320     0.0020    -0.9430 h4         1 07S       0.023100
     35 H2           1.9310    -0.0030    -0.9350 ha         1 07S       0.139000
     36 H3           3.1440    -0.0000     1.2360 ha         1 07S       0.140000
     37 H4          -0.6770     0.0030     3.2090 h4         1 07S       0.026100
     38 H5           0.2930    -0.0080     5.0180 h4         1 07S       0.047100
     39 H6           5.4270    -0.1160     6.3430 hn         1 07S       0.467800
     40 H7           1.4770     0.1520     9.8850 h4         1 07S       0.026100
     41 H8           3.1770     0.3560    11.6490 ha         1 07S       0.143000
     42 H9           6.2030     0.1910     8.6070 ha         1 07S       0.139000
     43 H10          4.6880    -0.4200    12.8000 h1         1 07S       0.054950
     44 H11          4.5410     1.3370    12.6140 h1         1 07S       0.054950
     45 H12          6.8530     1.6250    13.4060 h1         1 07S       0.048950
     46 H13          5.8990     0.7340    14.6050 h1         1 07S       0.048950
     47 H15          8.4090     0.4010    11.9720 h1         1 07S       0.048950
     48 H16          8.5550    -1.3560    12.1570 h1         1 07S       0.048950
     49 H17          7.1960    -0.7530    10.1670 h1         1 07S       0.054950
     50 H18          6.2420    -1.6440    11.3670 h1         1 07S       0.054950
     51 H19          7.8600    -0.1280    15.5270 h1         1 07S       0.052200
     52 H20          8.9770     0.5250    14.3200 h1         1 07S       0.052200
     53 H21         10.7350    -3.4450    16.4960 h1         1 07S       0.063950
     54 H22         10.6880    -3.5760    14.7270 h1         1 07S       0.063950
     55 H23         13.0270    -3.4350    15.6840 h1         1 07S       0.055450
     56 H24         12.6480    -2.1590    14.5120 h1         1 07S       0.055450
     57 H25         12.2900     0.3720    17.0620 h1         1 07S       0.055450
     58 H26         12.2210     0.0660    15.3180 h1         1 07S       0.055450
     59 H27          9.9460     0.2950    16.1200 h1         1 07S       0.063950
     60 H28         10.2420    -0.8750    17.4210 h1         1 07S       0.063950
@<TRIPOS>BOND
     1    33    26 2   
     2    26    27 1   
     3    26    25 1   
     4    24    23 1   
     5    24    19 1   
     6    23    22 1   
     7    27    28 1   
     8    27    32 1   
     9    28    29 1   
    10    22    25 1   
    11    22    21 1   
    12    32    31 1   
    13    20    19 1   
    14    20    21 1   
    15    19    17 1   
    16    18    17 ar  
    17    18    13 ar  
    18    17    16 ar  
    19    12    13 1   
    20    12     9 1   
    21    29    30 1   
    22    10     9 2   
    23    10    11 1   
    24    30    31 1   
    25    13    14 ar  
    26     9     8 1   
    27    16    15 ar  
    28    11     7 2   
    29    14    15 ar  
    30     8     7 1   
    31     7     4 1   
    32     4     5 ar  
    33     4     3 ar  
    34     5     6 ar  
    35     3     2 ar  
    36     6     1 ar  
    37     2     1 ar  
    38     1    34 1   
    39     2    35 1   
    40     3    36 1   
    41     5    37 1   
    42    11    38 1   
    43    12    39 1   
    44    15    40 1   
    45    16    41 1   
    46    18    42 1   
    47    20    43 1   
    48    20    44 1   
    49    21    45 1   
    50    21    46 1   
    51    23    47 1   
    52    23    48 1   
    53    24    49 1   
    54    24    50 1   
    55    25    51 1   
    56    25    52 1   
    57    28    53 1   
    58    28    54 1   
    59    29    55 1   
    60    29    56 1   
    61    31    57 1   
    62    31    58 1   
    63    32    59 1   
    64    32    60 1   
@<TRIPOS>SUBSTRUCTURE
     1 07S         1 TEMP              0 ****  ****    0 ROOT
