@<TRIPOS>MOLECULE
07S
   60    64     1     0     0
SMALL
bcc


@<TRIPOS>ATOM
      1 C1           0.0000     0.0000     0.0000 ca         1 07S       0.395200
      2 C2           1.3840     0.0000     0.0000 ca         1 07S      -0.213300
      3 C3           2.0610     0.0000     1.2070 ca         1 07S      -0.075000
      4 C4           1.3100     0.0000     2.3890 ca         1 07S      -0.093300
      5 C5          -0.0830     0.0000     2.3030 ca         1 07S       0.402200
      6 N6          -0.6820     0.0060     1.1290 nb         1 07S      -0.574000
      7 C11          1.9810    -0.0070     3.7050 cc         1 07S      -0.087400
      8 S12          3.7210    -0.0070     3.9810 ss         1 07S      -0.328300
      9 C13          3.4660    -0.0160     5.6710 cc         1 07S       0.532300
     10 N14          2.1940    -0.0180     5.9350 nd         1 07S      -0.578000
     11 C15          1.3700    -0.0070     4.9070 cd         1 07S       0.402200
     12 N16          4.4710    -0.0210     6.6240 nu         1 07S      -0.360600
     13 C17          4.1500     0.0810     7.9750 ca         1 07S       0.487200
     14 N18          2.8790     0.0700     8.3490 nb         1 07S      -0.589000
     15 C19          2.5270     0.1630     9.6190 ca         1 07S       0.463200
     16 C20          3.4760     0.2770    10.6110 ca         1 07S      -0.326300
     17 C21          4.8290     0.2910    10.2620 ca         1 07S       0.088600
     18 C22          5.1650     0.1840     8.9160 ca         1 07S      -0.306300
     19 N26          5.8150     0.4040    11.2370 nh         1 07S      -0.363000
     20 C27          5.2230     0.4960    12.5790 c3         1 07S       0.139800
     21 C28          6.3330     0.6980    13.6130 c3         1 07S       0.138300
     22 N29          7.2820    -0.4230    13.5340 n3         1 07S      -0.510600
     23 C30          7.8740    -0.5150    12.1930 c3         1 07S       0.138300
     24 C31          6.7630    -0.7170    11.1590 c3         1 07S       0.139800
     25 C40          8.3230    -0.3030    14.5630 c3         1 07S       0.082800
     26 C41          9.1240    -1.5780    14.6160 c          1 07S       0.587100
     27 N44         10.1410    -1.6990    15.4930 n          1 07S      -0.160800
     28 C45         10.9380    -2.9340    15.5630 c3         1 07S       0.008000
     29 C46         12.4220    -2.5560    15.4950 c3         1 07S       0.198400
     30 O47         12.7010    -1.5640    16.4850 os         1 07S      -0.403600
     31 C48         11.9930    -0.3350    16.2980 c3         1 07S       0.198400
     32 C49         10.4910    -0.5980    16.4040 c3         1 07S       0.008000
     33 O58          8.8540    -2.4960    13.8700 o          1 07S      -0.629100
     34 H1          -0.5320     0.0020    -0.9430 h4         1 07S      -0.020900
     35 H2           1.9310    -0.0030    -0.9350 ha         1 07S       0.113000
     36 H3           3.1440    -0.0000     1.2360 ha         1 07S       0.118000
     37 H4          -0.6770     0.0030     3.2090 h4         1 07S      -0.013900
     38 H5           0.2930    -0.0080     5.0180 h4         1 07S       0.004100
     39 H6           5.4270    -0.1160     6.3430 hn         1 07S       0.290800
     40 H7           1.4770     0.1520     9.8850 h4         1 07S      -0.020900
     41 H8           3.1770     0.3560    11.6490 ha         1 07S       0.132000
     42 H9           6.2030     0.1910     8.6070 ha         1 07S       0.125000
     43 H10          4.6880    -0.4200    12.8000 h1         1 07S       0.027450
     44 H11          4.5410     1.3370    12.6140 h1         1 07S       0.027450
     45 H12          6.8530     1.6250    13.4060 h1         1 07S       0.022450
     46 H13          5.8990     0.7340    14.6050 h1         1 07S       0.022450
     47 H15          8.4090     0.4010    11.9720 h1         1 07S       0.022450
     48 H16          8.5550    -1.3560    12.1570 h1         1 07S       0.022450
     49 H17          7.1960    -0.7530    10.1670 h1         1 07S       0.027450
     50 H18          6.2420    -1.6440    11.3670 h1         1 07S       0.027450
     51 H19          7.8600    -0.1280    15.5270 h1         1 07S       0.024700
     52 H20          8.9770     0.5250    14.3200 h1         1 07S       0.024700
     53 H21         10.7350    -3.4450    16.4960 h1         1 07S       0.037200
     54 H22         10.6880    -3.5760    14.7270 h1         1 07S       0.037200
     55 H23         13.0270    -3.4350    15.6840 h1         1 07S       0.015200
     56 H24         12.6480    -2.1590    14.5120 h1         1 07S       0.015200
     57 H25         12.2900     0.3720    17.0620 h1         1 07S       0.015200
     58 H26         12.2210     0.0660    15.3180 h1         1 07S       0.015200
     59 H27          9.9460     0.2950    16.1200 h1         1 07S       0.037200
     60 H28         10.2420    -0.8750    17.4210 h1         1 07S       0.037200
@<TRIPOS>BOND
     1     1     2 ar  
     2     1     6 ar  
     3     1    34 1   
     4     2     3 ar  
     5     2    35 1   
     6     3     4 ar  
     7     3    36 1   
     8     4     5 ar  
     9     4     7 1   
    10     5     6 ar  
    11     5    37 1   
    12     7     8 1   
    13     7    11 2   
    14     8     9 1   
    15     9    10 2   
    16     9    12 1   
    17    10    11 1   
    18    11    38 1   
    19    12    13 1   
    20    12    39 1   
    21    13    14 ar  
    22    13    18 ar  
    23    14    15 ar  
    24    15    16 ar  
    25    15    40 1   
    26    16    17 ar  
    27    16    41 1   
    28    17    18 ar  
    29    17    19 1   
    30    18    42 1   
    31    19    20 1   
    32    19    24 1   
    33    20    21 1   
    34    20    43 1   
    35    20    44 1   
    36    21    22 1   
    37    21    45 1   
    38    21    46 1   
    39    22    23 1   
    40    22    25 1   
    41    23    24 1   
    42    23    47 1   
    43    23    48 1   
    44    24    49 1   
    45    24    50 1   
    46    25    26 1   
    47    25    51 1   
    48    25    52 1   
    49    26    27 1   
    50    26    33 2   
    51    27    28 1   
    52    27    32 1   
    53    28    29 1   
    54    28    53 1   
    55    28    54 1   
    56    29    30 1   
    57    29    55 1   
    58    29    56 1   
    59    30    31 1   
    60    31    32 1   
    61    31    57 1   
    62    31    58 1   
    63    32    59 1   
    64    32    60 1   
@<TRIPOS>SUBSTRUCTURE
     1 07S         1 TEMP              0 ****  ****    0 ROOT
