@<TRIPOS>MOLECULE
07S
   60    64     1     0     0
SMALL
bcc


@<TRIPOS>ATOM
      1 C1          -0.3580    -0.1930     0.6600 ca         1 07S       0.387200
      2 C2           0.9490    -0.7060     0.5810 ca         1 07S      -0.238300
      3 C3           1.7810    -0.5890     1.6920 ca         1 07S      -0.101000
      4 C4           1.2930     0.0330     2.8540 ca         1 07S      -0.098300
      5 C5          -0.0410     0.5120     2.8280 ca         1 07S       0.401200
      6 N6          -0.8510     0.4070     1.7610 nb         1 07S      -0.660000
      7 C11          2.1090     0.1790     4.0260 cc         1 07S      -0.218400
      8 S12          3.4550    -0.7730     4.3640 ss         1 07S       0.034700
      9 C13          3.7310     0.0900     5.8350 cc         1 07S       0.600300
     10 N14          2.8330     1.0900     6.0650 nd         1 07S      -0.696000
     11 C15          1.9230     1.1220     5.0410 cd         1 07S       0.373200
     12 N16          4.7190    -0.2470     6.7600 nu         1 07S      -0.802600
     13 C17          5.9210    -0.8800     6.3900 ca         1 07S       0.656200
     14 N18          6.0100    -1.5080     5.1740 nb         1 07S      -0.744000
     15 C19          7.1520    -2.1580     4.9090 ca         1 07S       0.460200
     16 C20          8.2460    -2.2450     5.7770 ca         1 07S      -0.336300
     17 C21          8.1760    -1.5900     7.0300 ca         1 07S       0.205600
     18 C22          6.9850    -0.8950     7.3350 ca         1 07S      -0.321300
     19 N26          9.2600    -1.5260     7.9350 nh         1 07S      -0.631000
     20 C27         10.5590    -1.9910     7.4890 c3         1 07S       0.182300
     21 C28         10.8470    -3.4840     7.7570 c3         1 07S       0.132300
     22 N29         10.5760    -3.8560     9.1390 n3         1 07S      -0.731600
     23 C30          9.2590    -3.4250     9.5920 c3         1 07S       0.132300
     24 C31          8.9880    -1.9320     9.3060 c3         1 07S       0.182300
     25 C40         10.8070    -5.2710     9.3790 c3         1 07S       0.100800
     26 C41         10.8960    -5.5990    10.8760 c          1 07S       0.661100
     27 N44         11.9760    -5.1680    11.6230 n          1 07S      -0.461800
     28 C45         11.9980    -5.4060    13.0520 c3         1 07S       0.061500
     29 C46         13.4160    -5.6230    13.5940 c3         1 07S       0.112900
     30 O47         14.3050    -4.5970    13.1680 os         1 07S      -0.409600
     31 C48         14.3580    -4.4890    11.7510 c3         1 07S       0.112900
     32 C49         12.9720    -4.2450    11.1340 c3         1 07S       0.061500
     33 O58         10.0050    -6.3020    11.3940 o          1 07S      -0.612100
     34 H1          -1.0490    -0.2630    -0.1990 h4         1 07S       0.022100
     35 H2           1.3030    -1.1870    -0.3410 ha         1 07S       0.143000
     36 H3           2.8110    -0.9760     1.6630 ha         1 07S       0.139000
     37 H4          -0.4770     1.0020     3.7170 h4         1 07S       0.024100
     38 H5           1.1310     1.8800     5.0750 h4         1 07S       0.044100
     39 H6           4.7850     0.3430     7.5660 hn         1 07S       0.451800
     40 H7           7.1840    -2.6530     3.9200 h4         1 07S       0.024100
     41 H8           9.1280    -2.8220     5.4720 ha         1 07S       0.145000
     42 H9           6.8830    -0.3540     8.2870 ha         1 07S       0.151000
     43 H10         10.6940    -1.7900     6.3910 h1         1 07S       0.067950
     44 H11         11.3180    -1.3710     8.0490 h1         1 07S       0.067950
     45 H12         10.2520    -4.1090     7.0290 h1         1 07S       0.046700
     46 H13         11.9390    -3.6670     7.5590 h1         1 07S       0.046700
     47 H15          9.2150    -3.5850    10.7060 h1         1 07S       0.046700
     48 H16          8.4350    -4.0410     9.1250 h1         1 07S       0.046700
     49 H17          7.9180    -1.7210     9.5740 h1         1 07S       0.067950
     50 H18          9.6520    -1.3030     9.9640 h1         1 07S       0.067950
     51 H19         11.7640    -5.5810     8.8740 h1         1 07S       0.063200
     52 H20          9.9750    -5.9180     8.9680 h1         1 07S       0.063200
     53 H21         11.3730    -6.3140    13.2860 h1         1 07S       0.061450
     54 H22         11.5430    -4.5180    13.5780 h1         1 07S       0.061450
     55 H23         13.4140    -5.5440    14.7130 h1         1 07S       0.056450
     56 H24         13.8160    -6.6220    13.2780 h1         1 07S       0.056450
     57 H25         14.8250    -5.4140    11.3220 h1         1 07S       0.056450
     58 H26         15.0180    -3.6010    11.5630 h1         1 07S       0.056450
     59 H27         12.6490    -3.1910    11.3730 h1         1 07S       0.061450
     60 H28         13.0740    -4.3350    10.0170 h1         1 07S       0.061450
@<TRIPOS>BOND
     1     1     2 ar  
     2     1     6 ar  
     3     1    34 1   
     4     2     3 ar  
     5     2    35 1   
     6     3     4 ar  
     7     3    36 1   
     8     4     5 ar  
     9     4     7 1   
    10     5     6 ar  
    11     5    37 1   
    12     7     8 1   
    13     7    11 2   
    14     8     9 1   
    15     9    10 2   
    16     9    12 1   
    17    10    11 1   
    18    11    38 1   
    19    12    13 1   
    20    12    39 1   
    21    13    14 ar  
    22    13    18 ar  
    23    14    15 ar  
    24    15    16 ar  
    25    15    40 1   
    26    16    17 ar  
    27    16    41 1   
    28    17    18 ar  
    29    17    19 1   
    30    18    42 1   
    31    19    20 1   
    32    19    24 1   
    33    20    21 1   
    34    20    43 1   
    35    20    44 1   
    36    21    22 1   
    37    21    45 1   
    38    21    46 1   
    39    22    23 1   
    40    22    25 1   
    41    23    24 1   
    42    23    47 1   
    43    23    48 1   
    44    24    49 1   
    45    24    50 1   
    46    25    26 1   
    47    25    51 1   
    48    25    52 1   
    49    26    27 1   
    50    26    33 2   
    51    27    28 1   
    52    27    32 1   
    53    28    29 1   
    54    28    53 1   
    55    28    54 1   
    56    29    30 1   
    57    29    55 1   
    58    29    56 1   
    59    30    31 1   
    60    31    32 1   
    61    31    57 1   
    62    31    58 1   
    63    32    59 1   
    64    32    60 1   
@<TRIPOS>SUBSTRUCTURE
     1 07S         1 TEMP              0 ****  ****    0 ROOT
