@<TRIPOS>MOLECULE
07T
   41    44     1     0     0
SMALL
bcc


@<TRIPOS>ATOM
      1 OAD          0.0080     0.1550     0.0820 o          1 07T      -0.648500
      2 CAR          1.2480     0.0230     0.0530 c          1 07T       0.701100
      3 CAV          2.1150     0.0600     1.2370 cc         1 07T      -0.117900
      4 NAW          1.7670     0.2280     2.5750 na         1 07T      -0.002100
      5 CAA          0.4630     0.4550     3.1120 c3         1 07T       0.008600
      6 CAT          2.9500     0.1610     3.3040 cc         1 07T      -0.081300
      7 CAK          3.3560     0.2480     4.6620 cc         1 07T      -0.031000
      8 CAQ          4.7300     0.0890     4.7670 cd         1 07T      -0.181600
      9 SAY          5.5450     0.0200     6.2440 sx         1 07T       0.378400
     10 CAB          6.3650     1.5540     6.2620 c3         1 07T      -0.136800
     11 OAE          4.5110     0.1170     7.3070 o          1 07T      -0.508200
     12 SAN          5.4760    -0.1470     3.2780 ss         1 07T       0.123200
     13 CAU          4.0780    -0.0610     2.4130 cd         1 07T      -0.105100
     14 CAS          3.5270    -0.1230     1.1050 cd         1 07T      -0.141900
     15 CAJ          4.0370    -0.3210    -0.2190 cd         1 07T       0.397800
     16 NAM          3.2610    -0.3430    -1.2850 nc         1 07T      -0.442300
     17 NAX          1.9420    -0.1480    -1.1770 n          1 07T      -0.189800
     18 CAL          1.1360    -0.2970    -2.4000 c3         1 07T       0.154300
     19 CAP          0.7890    -1.7190    -2.7330 ca         1 07T      -0.083300
     20 CAI         -0.2500    -2.3450    -2.0460 ca         1 07T      -0.173000
     21 CAH          1.4820    -2.3930    -3.7410 ca         1 07T      -0.148000
     22 CAF          1.1200    -3.6990    -4.0650 ca         1 07T      -0.101000
     23 CAG          0.0830    -4.3390    -3.3960 ca         1 07T      -0.180000
     24 CAO         -0.6170    -3.6740    -2.3620 ca         1 07T       0.133600
     25 NAC         -1.5940    -4.3410    -1.6150 nv         1 07T      -0.818200
     26 H1           0.2580    -0.2900     3.9280 h1         1 07T       0.071033
     27 H2           0.4050     1.4920     3.5430 h1         1 07T       0.071033
     28 H3          -0.3040     0.3460     2.2980 h1         1 07T       0.071033
     29 H4           2.6840     0.4080     5.5130 ha         1 07T       0.185000
     30 H5           5.6840     2.4300     6.3550 h1         1 07T       0.085033
     31 H6           7.0470     1.5740     7.1450 h1         1 07T       0.085033
     32 H7           6.9780     1.6940     5.3430 h1         1 07T       0.085033
     33 H9           5.1160    -0.4660    -0.4000 h4         1 07T       0.049800
     34 H10          1.7000     0.1670    -3.2590 h1         1 07T       0.081200
     35 H11          0.1870     0.2920    -2.2320 h1         1 07T       0.081200
     36 H12         -0.7730    -1.7930    -1.2470 ha         1 07T       0.152000
     37 H13          2.3080    -1.8990    -4.2710 ha         1 07T       0.136000
     38 H14          1.6610    -4.2330    -4.8610 ha         1 07T       0.131000
     39 H15         -0.1830    -5.3720    -3.6680 ha         1 07T       0.131000
     40 H16         -2.2350    -3.7370    -1.1490 hn         1 07T       0.388300
     41 H17         -2.0410    -5.0870    -2.1010 hn         1 07T       0.388300
@<TRIPOS>BOND
     1     1     2 2   
     2     2     3 1   
     3     2    17 1   
     4     3     4 1   
     5     3    14 2   
     6     4     5 1   
     7     4     6 1   
     8     5    26 1   
     9     5    27 1   
    10     5    28 1   
    11     6     7 1   
    12     6    13 2   
    13     7     8 2   
    14     7    29 1   
    15     8     9 1   
    16     8    12 1   
    17     9    10 1   
    18     9    11 2   
    19    10    30 1   
    20    10    31 1   
    21    10    32 1   
    22    12    13 1   
    23    13    14 1   
    24    14    15 1   
    25    15    16 2   
    26    15    33 1   
    27    16    17 1   
    28    17    18 1   
    29    18    19 1   
    30    18    34 1   
    31    18    35 1   
    32    19    20 ar  
    33    19    21 ar  
    34    20    24 ar  
    35    20    36 1   
    36    21    22 ar  
    37    21    37 1   
    38    22    23 ar  
    39    22    38 1   
    40    23    24 ar  
    41    23    39 1   
    42    24    25 1   
    43    25    40 1   
    44    25    41 1   
@<TRIPOS>SUBSTRUCTURE
     1 07T         1 TEMP              0 ****  ****    0 ROOT
