@<TRIPOS>MOLECULE
07T
   41    44     1     0     0
SMALL
bcc


@<TRIPOS>ATOM
      1 OAD          0.0000     0.0000     0.0000 o          1 07T      -0.719500
      2 CAR          1.2210     0.0000     0.0000 c          1 07T       0.636100
      3 CAV          1.9350     0.0000     1.2170 cc         1 07T      -0.294900
      4 NAW          1.5510    -0.0010     2.5350 na         1 07T       0.511900
      5 CAA          0.1630    -0.0010     3.0050 c3         1 07T      -0.032400
      6 CAT          2.6750    -0.0020     3.3620 cc         1 07T      -0.277300
      7 CAK          2.9840    -0.0030     4.7280 cc         1 07T       0.003000
      8 CAQ          4.2760    -0.0030     5.0270 cd         1 07T       0.124400
      9 SAY          4.9310    -0.0050     6.6630 sx         1 07T       0.050400
     10 CAB          5.0820    -1.7720     7.0400 c3         1 07T       0.131200
     11 OAE          6.2260     0.5560     6.4890 o          1 07T      -0.433200
     12 SAN          5.2420    -0.0030     3.5600 ss         1 07T      -0.186800
     13 CAU          3.7940    -0.0020     2.5600 cd         1 07T       0.053900
     14 CAS          3.3320    -0.0010     1.1710 cd         1 07T      -0.196900
     15 CAJ          3.9920    -0.0010    -0.0790 cd         1 07T       0.492800
     16 NAM          3.2990     0.0000    -1.1830 nc         1 07T      -0.550300
     17 NAX          1.9010    -0.0060    -1.1650 n          1 07T       0.167200
     18 CAL          1.1640    -0.0120    -2.4310 c3         1 07T       0.114300
     19 CAP          0.9120     1.4070    -2.8720 ca         1 07T      -0.082300
     20 CAI         -0.2350     2.0610    -2.4660 ca         1 07T      -0.168000
     21 CAH          1.8320     2.0530    -3.6760 ca         1 07T      -0.144000
     22 CAF          1.6040     3.3560    -4.0820 ca         1 07T      -0.055000
     23 CAG          0.4570     4.0150    -3.6850 ca         1 07T      -0.182000
     24 CAO         -0.4640     3.3710    -2.8680 ca         1 07T       0.050600
     25 NAC         -1.6250     4.0340    -2.4640 nv         1 07T      -0.449200
     26 H1           0.1480    -0.0390     4.0870 h1         1 07T       0.032700
     27 H2          -0.3530    -0.8660     2.6060 h1         1 07T       0.032700
     28 H3          -0.3320     0.9020     2.6690 h1         1 07T       0.032700
     29 H4           2.2160    -0.0030     5.4920 ha         1 07T       0.114000
     30 H5           4.0990    -2.2260     7.0430 h1         1 07T       0.049367
     31 H6           5.5400    -1.8950     8.0140 h1         1 07T       0.049367
     32 H7           5.6990    -2.2500     6.2880 h1         1 07T       0.049367
     33 H9           5.0750     0.0040    -0.1200 h4         1 07T       0.005800
     34 H10          0.2180    -0.5220    -2.2950 h1         1 07T       0.044200
     35 H11          1.7470    -0.5270    -3.1850 h1         1 07T       0.044200
     36 H12         -0.9510     1.5560    -1.8290 ha         1 07T       0.131000
     37 H13          2.7320     1.5390    -3.9890 ha         1 07T       0.113000
     38 H14          2.3240     3.8590    -4.7160 ha         1 07T       0.099000
     39 H15          0.2810     5.0350    -4.0020 ha         1 07T       0.106000
     40 H16         -1.7830     4.9810    -2.7450 hn         1 07T       0.265300
     41 H17         -2.3090     3.5540    -1.9140 hn         1 07T       0.265300
@<TRIPOS>BOND
     1     1     2 2   
     2     2     3 1   
     3     2    17 1   
     4     3     4 1   
     5     3    14 2   
     6     4     5 1   
     7     4     6 1   
     8     5    26 1   
     9     5    27 1   
    10     5    28 1   
    11     6     7 1   
    12     6    13 2   
    13     7     8 2   
    14     7    29 1   
    15     8     9 1   
    16     8    12 1   
    17     9    10 1   
    18     9    11 2   
    19    10    30 1   
    20    10    31 1   
    21    10    32 1   
    22    12    13 1   
    23    13    14 1   
    24    14    15 1   
    25    15    16 2   
    26    15    33 1   
    27    16    17 1   
    28    17    18 1   
    29    18    19 1   
    30    18    34 1   
    31    18    35 1   
    32    19    20 ar  
    33    19    21 ar  
    34    20    24 ar  
    35    20    36 1   
    36    21    22 ar  
    37    21    37 1   
    38    22    23 ar  
    39    22    38 1   
    40    23    24 ar  
    41    23    39 1   
    42    24    25 1   
    43    25    40 1   
    44    25    41 1   
@<TRIPOS>SUBSTRUCTURE
     1 07T         1 TEMP              0 ****  ****    0 ROOT
