@<TRIPOS>MOLECULE
07U
   42    44     1     0     0
SMALL
bcc


@<TRIPOS>ATOM
      1 N1           0.0000     0.0000     0.0000 nu         1 07U      -0.580900
      2 C6           1.9740     0.0020    -1.4430 c3         1 07U      -0.110800
      3 C10          3.5040     0.0020    -1.4430 c3         1 07U       0.000400
      4 C20         -0.6510    -0.0110     3.5250 cp         1 07U       0.469800
      5 C21         -2.0300     0.0000     3.6260 ca         1 07U      -0.198300
      6 C24         -4.1920     0.0190     2.4430 ca         1 07U       0.443200
      7 C3           1.4640     0.0000     0.0000 c3         1 07U       0.172800
      8 N7           1.4850     1.2020    -2.1340 nz         1 07U       0.057400
      9 C14          1.4630    -1.2460    -2.1660 c3         1 07U       0.000400
     10 C18         -0.6920    -0.0010     1.1990 ca         1 07U       0.511200
     11 N19         -0.0350    -0.0080     2.3410 nb         1 07U      -0.626000
     12 C23         -2.7900     0.0080     2.4440 ca         1 07U      -0.110300
     13 N26         -4.8410     0.0250     1.3010 nb         1 07U      -0.551000
     14 C27         -4.2270     0.0220     0.1270 ca         1 07U       0.421200
     15 C29         -2.8660     0.0120     0.0250 ca         1 07U      -0.222300
     16 C31         -2.1050     0.0040     1.2010 ca         1 07U      -0.161300
     17 C32          0.1650    -0.0180     4.7640 cp         1 07U      -0.136500
     18 C33          1.5610    -0.0290     4.7040 ca         1 07U      -0.202800
     19 C35          2.2810    -0.0360     5.8810 ca         1 07U       0.409200
     20 N37          1.6690    -0.0330     7.0500 nb         1 07U      -0.560000
     21 C38          0.3540    -0.0220     7.1510 ca         1 07U       0.409200
     22 C40         -0.4430    -0.0100     6.0230 ca         1 07U      -0.202800
     23 H1          -0.5000    -0.0020    -0.8670 hn         1 07U       0.292800
     24 H2           3.8660    -0.8890    -0.9460 hc         1 07U       0.041033
     25 H3           3.8650     0.0180    -2.4650 hc         1 07U       0.041033
     26 H4           3.8650     0.8790    -0.9200 hc         1 07U       0.041033
     27 H5          -2.5130    -0.0030     4.5960 ha         1 07U       0.140000
     28 H6          -4.7380     0.0210     3.3790 h4         1 07U      -0.001900
     29 H7           1.8250     0.8840     0.5120 h1         1 07U       0.057700
     30 H8           1.8250    -0.8850     0.5100 h1         1 07U       0.057700
     31 H9           0.5200     1.0810    -2.3710 hn         1 07U       0.230133
     32 H10          1.5830     1.9970    -1.5330 hn         1 07U       0.230133
     33 H12          1.5460    -2.1030    -1.5080 hc         1 07U       0.041033
     34 H13          2.0570    -1.4160    -3.0560 hc         1 07U       0.041033
     35 H14          0.4270    -1.1040    -2.4450 hc         1 07U       0.041033
     36 H15         -4.8230     0.0270    -0.7770 h4         1 07U      -0.013900
     37 H16         -2.3840     0.0090    -0.9460 ha         1 07U       0.092000
     38 H17          2.0700    -0.0310     3.7480 ha         1 07U       0.118000
     39 H18          3.3640    -0.0440     5.8450 h4         1 07U      -0.013900
     40 H19         -0.1070    -0.0170     8.1310 h4         1 07U      -0.013900
     41 H20         -1.5220    -0.0010     6.1120 ha         1 07U       0.118000
     42 H73          2.0260     1.3550    -2.9620 hn         1 07U       0.230133
@<TRIPOS>BOND
     1     1     7 1   
     2     1    10 1   
     3     1    23 1   
     4     2     3 1   
     5     2     7 1   
     6     2     8 1   
     7     2     9 1   
     8     3    24 1   
     9     3    25 1   
    10     3    26 1   
    11     4     5 ar  
    12     4    11 ar  
    13     4    17 1   
    14     5    12 ar  
    15     5    27 1   
    16     6    12 ar  
    17     6    13 ar  
    18     6    28 1   
    19     7    29 1   
    20     7    30 1   
    21     8    31 1   
    22     8    32 1   
    23     8    42 1   
    24     9    33 1   
    25     9    34 1   
    26     9    35 1   
    27    10    11 ar  
    28    10    16 ar  
    29    12    16 ar  
    30    13    14 ar  
    31    14    15 ar  
    32    14    36 1   
    33    15    16 ar  
    34    15    37 1   
    35    17    18 ar  
    36    17    22 ar  
    37    18    19 ar  
    38    18    38 1   
    39    19    20 ar  
    40    19    39 1   
    41    20    21 ar  
    42    21    22 ar  
    43    21    40 1   
    44    22    41 1   
@<TRIPOS>SUBSTRUCTURE
     1 07U         1 TEMP              0 ****  ****    0 ROOT
