@<TRIPOS>MOLECULE
molecule
   42    44     1     0     0
SMALL
bcc


@<TRIPOS>ATOM
      1 N1           0.0000     0.0000     0.0000 nu         1 07U      -0.954900
      2 C6           1.9740     0.0020    -1.4430 c3         1 07U       0.084200
      3 C10          3.5040     0.0020    -1.4430 c3         1 07U      -0.111100
      4 C20         -0.6510    -0.0110     3.5250 cp         1 07U       0.513800
      5 C21         -2.0300     0.0000     3.6260 ca         1 07U      -0.231300
      6 C24         -4.1920     0.0190     2.4430 ca         1 07U       0.460200
      7 C3           1.4640     0.0000     0.0000 c3         1 07U       0.234800
      8 N7           1.4850     1.2020    -2.1340 nz         1 07U      -0.809600
      9 C14          1.4630    -1.2460    -2.1660 c3         1 07U      -0.111100
     10 C18         -0.6920    -0.0010     1.1990 ca         1 07U       0.696200
     11 N19         -0.0350    -0.0080     2.3410 nb         1 07U      -0.755000
     12 C23         -2.7900     0.0080     2.4440 ca         1 07U      -0.116300
     13 N26         -4.8410     0.0250     1.3010 nb         1 07U      -0.663000
     14 C27         -4.2270     0.0220     0.1270 ca         1 07U       0.432200
     15 C29         -2.8660     0.0120     0.0250 ca         1 07U      -0.248300
     16 C31         -2.1050     0.0040     1.2010 ca         1 07U      -0.162300
     17 C32          0.1650    -0.0180     4.7640 cp         1 07U      -0.120500
     18 C33          1.5610    -0.0290     4.7040 ca         1 07U      -0.231800
     19 C35          2.2810    -0.0360     5.8810 ca         1 07U       0.425200
     20 N37          1.6690    -0.0330     7.0500 nb         1 07U      -0.671000
     21 C38          0.3540    -0.0220     7.1510 ca         1 07U       0.425200
     22 C40         -0.4430    -0.0100     6.0230 ca         1 07U      -0.231800
     23 H1          -0.5000    -0.0020    -0.8670 hn         1 07U       0.434800
     24 H2           3.8660    -0.8890    -0.9460 hc         1 07U       0.078033
     25 H3           3.8650     0.0180    -2.4650 hc         1 07U       0.078033
     26 H4           3.8650     0.8790    -0.9200 hc         1 07U       0.078033
     27 H5          -2.5130    -0.0030     4.5960 ha         1 07U       0.162000
     28 H6          -4.7380     0.0210     3.3790 h4         1 07U       0.047100
     29 H7           1.8250     0.8840     0.5120 h1         1 07U       0.089200
     30 H8           1.8250    -0.8850     0.5100 h1         1 07U       0.089200
     31 H9           0.5200     1.0810    -2.3710 hn         1 07U       0.455133
     32 H10          1.5830     1.9970    -1.5330 hn         1 07U       0.455133
     33 H12          1.5460    -2.1030    -1.5080 hc         1 07U       0.078033
     34 H13          2.0570    -1.4160    -3.0560 hc         1 07U       0.078033
     35 H14          0.4270    -1.1040    -2.4450 hc         1 07U       0.078033
     36 H15         -4.8230     0.0270    -0.7770 h4         1 07U       0.032100
     37 H16         -2.3840     0.0090    -0.9460 ha         1 07U       0.110000
     38 H17          2.0700    -0.0310     3.7480 ha         1 07U       0.142000
     39 H18          3.3640    -0.0440     5.8450 h4         1 07U       0.032600
     40 H19         -0.1070    -0.0170     8.1310 h4         1 07U       0.032600
     41 H20         -1.5220    -0.0010     6.1120 ha         1 07U       0.142000
     42 H73          2.0260     1.3550    -2.9620 hn         1 07U       0.455133
@<TRIPOS>BOND
     1     8     2 1
     2     9     2 1
     3     3     2 1
     4     2     7 1
     5     7     1 1
     6     1    10 1
     7    10    11 ar
     8    10    16 ar
     9    11     4 ar
    10    15    16 ar
    11    15    14 ar
    12    16    12 ar
    13    22    21 ar
    14    22    17 ar
    15    14    13 ar
    16     4    17 1
    17     4     5 ar
    18    21    20 ar
    19    17    18 ar
    20    12     5 ar
    21    12     6 ar
    22    20    19 ar
    23    18    19 ar
    24    13     6 ar
    25     1    23 1
    26     3    24 1
    27     3    25 1
    28     3    26 1
    29     5    27 1
    30     6    28 1
    31     7    29 1
    32     7    30 1
    33     8    31 1
    34     8    32 1
    35     9    33 1
    36     9    34 1
    37     9    35 1
    38    14    36 1
    39    15    37 1
    40    18    38 1
    41    19    39 1
    42    21    40 1
    43    22    41 1
    44    42     8 1
@<TRIPOS>SUBSTRUCTURE
     1 07U         1 TEMP              0 ****  ****    0 ROOT
