@<TRIPOS>MOLECULE
07U
   42    44     1     0     0
SMALL
bcc


@<TRIPOS>ATOM
      1 N1           0.0090    -0.0950    -0.1230 nu         1 07U      -0.860900
      2 C6           2.0180    -1.6210    -0.1360 c3         1 07U       0.142200
      3 C10          3.4780    -1.5270    -0.5850 c3         1 07U      -0.131100
      4 C20         -0.8990    -0.1940     3.4160 cp         1 07U       0.466800
      5 C21         -2.2680     0.0540     3.4120 ca         1 07U      -0.194300
      6 C24         -4.3260     0.5650     2.0910 ca         1 07U       0.433200
      7 C3           1.4490    -0.1650    -0.0730 c3         1 07U       0.166800
      8 N7           1.2320    -2.4460    -1.1450 nz         1 07U      -0.836600
      9 C14          1.9520    -2.3110     1.2250 c3         1 07U      -0.131100
     10 C18         -0.7440    -0.0020     1.0890 ca         1 07U       0.597200
     11 N19         -0.1430    -0.2140     2.2680 nb         1 07U      -0.712000
     12 C23         -2.9170     0.2930     2.1780 ca         1 07U      -0.125300
     13 N26         -4.9590     0.7900     0.9530 nb         1 07U      -0.630000
     14 C27         -4.2240     0.7600    -0.2020 ca         1 07U       0.407200
     15 C29         -2.8610     0.5090    -0.2430 ca         1 07U      -0.238300
     16 C31         -2.1700     0.2680     0.9720 ca         1 07U      -0.131300
     17 C32         -0.2090    -0.4420     4.6950 cp         1 07U      -0.122500
     18 C33         -0.7850    -1.2970     5.6450 ca         1 07U      -0.228300
     19 C35         -0.1070    -1.4990     6.8610 ca         1 07U       0.398700
     20 N37          1.0680    -0.9140     7.1640 nb         1 07U      -0.641000
     21 C38          1.6060    -0.0930     6.2420 ca         1 07U       0.398700
     22 C40          1.0120     0.1740     4.9950 ca         1 07U      -0.228300
     23 H1          -0.2990     0.6130    -0.7660 hn         1 07U       0.416800
     24 H2           3.5740    -1.0570    -1.5940 hc         1 07U       0.080367
     25 H3           3.9630    -2.5340    -0.6010 hc         1 07U       0.080367
     26 H4           4.0300    -0.8900     0.1520 hc         1 07U       0.080367
     27 H5          -2.8420     0.0760     4.3500 ha         1 07U       0.170000
     28 H6          -4.9310     0.5940     3.0180 h4         1 07U       0.045100
     29 H7           1.8960     0.2980     0.8540 h1         1 07U       0.086700
     30 H8           1.8620     0.3960    -0.9630 h1         1 07U       0.086700
     31 H9           0.2770    -2.5810    -0.7990 hn         1 07U       0.456800
     32 H10          1.6820    -3.3550    -1.2670 hn         1 07U       0.456800
     33 H12          2.5530    -3.2530     1.2210 hc         1 07U       0.080367
     34 H13          2.3810    -1.6230     1.9980 hc         1 07U       0.080367
     35 H14          0.9030    -2.5460     1.5280 hc         1 07U       0.080367
     36 H15         -4.8040     0.9570    -1.1230 h4         1 07U       0.041100
     37 H16         -2.3480     0.4990    -1.2130 ha         1 07U       0.137000
     38 H17         -1.7410    -1.8010     5.4520 ha         1 07U       0.148000
     39 H18         -0.5280    -2.1640     7.6380 h4         1 07U       0.034600
     40 H19          2.5660     0.3790     6.5220 h4         1 07U       0.034600
     41 H20          1.4950     0.8580     4.2860 ha         1 07U       0.148000
     42 H73          1.2010    -1.9550    -2.0400 hn         1 07U       0.456800
@<TRIPOS>BOND
     1     1     7 1   
     2     1    10 1   
     3     1    23 1   
     4     2     3 1   
     5     2     7 1   
     6     2     8 1   
     7     2     9 1   
     8     3    24 1   
     9     3    25 1   
    10     3    26 1   
    11     4     5 ar  
    12     4    11 ar  
    13     4    17 1   
    14     5    12 ar  
    15     5    27 1   
    16     6    12 ar  
    17     6    13 ar  
    18     6    28 1   
    19     7    29 1   
    20     7    30 1   
    21     8    31 1   
    22     8    32 1   
    23     8    42 1   
    24     9    33 1   
    25     9    34 1   
    26     9    35 1   
    27    10    11 ar  
    28    10    16 ar  
    29    12    16 ar  
    30    13    14 ar  
    31    14    15 ar  
    32    14    36 1   
    33    15    16 ar  
    34    15    37 1   
    35    17    18 ar  
    36    17    22 ar  
    37    18    19 ar  
    38    18    38 1   
    39    19    20 ar  
    40    19    39 1   
    41    20    21 ar  
    42    21    22 ar  
    43    21    40 1   
    44    22    41 1   
@<TRIPOS>SUBSTRUCTURE
     1 07U         1 TEMP              0 ****  ****    0 ROOT
