@<TRIPOS>MOLECULE
07V
   25    25     1     0     0
SMALL
bcc


@<TRIPOS>ATOM
      1 CAG          0.0000     0.0000     0.0000 c3         1 07V      -0.119400
      2 CAJ          1.5150     0.0000     0.0000 c          1 07V       0.624300
      3 OAD          2.1420     0.0010    -1.0390 o          1 07V      -0.554100
      4 CAI          2.1980     0.0000     1.2980 ce         1 07V      -0.225400
      5 CAC          3.6800     0.2600     1.3610 c3         1 07V       0.075100
      6 CAE          1.5210    -0.2270     2.4170 c2         1 07V      -0.090200
      7 CAF          0.0440    -0.4840     2.4460 c3         1 07V       0.008800
      8 CAK         -0.4570    -0.9790     1.0900 c3         1 07V       0.010500
      9 CAH         -1.9620    -1.0530     1.1050 c2         1 07V      -0.146400
     10 CAB         -2.7750     0.1910     1.3600 c3         1 07V       0.054100
     11 CAA         -2.5640    -2.1980     0.8960 c2         1 07V      -0.161000
     12 H1          -0.3670    -0.3270    -0.9650 hc         1 07V       0.043700
     13 H2          -0.3670     0.9950     0.2220 hc         1 07V       0.043700
     14 H3           3.9160     1.1470     0.7860 hc         1 07V       0.010033
     15 H4           3.9770     0.4080     2.3920 hc         1 07V       0.010033
     16 H5           4.2130    -0.5900     0.9500 hc         1 07V       0.010033
     17 H6           2.0620    -0.2250     3.3550 ha         1 07V       0.103000
     18 H7          -0.1700    -1.2350     3.1970 hc         1 07V       0.029700
     19 H8          -0.4710     0.4350     2.6990 hc         1 07V       0.029700
     20 H9          -0.0430    -1.9610     0.8900 hc         1 07V       0.038700
     21 H10         -3.2840     0.1010     2.3120 hc         1 07V       0.009367
     22 H11         -2.1190     1.0530     1.3810 hc         1 07V       0.009367
     23 H12         -3.5060     0.3120     0.5690 hc         1 07V       0.009367
     24 H13         -1.9790    -3.0920     0.7120 ha         1 07V       0.089000
     25 H14         -3.6460    -2.2520     0.9060 ha         1 07V       0.089000
@<TRIPOS>BOND
     1     1     2 1   
     2     1     8 1   
     3     1    12 1   
     4     1    13 1   
     5     2     3 2   
     6     2     4 1   
     7     4     5 1   
     8     4     6 2   
     9     5    14 1   
    10     5    15 1   
    11     5    16 1   
    12     6     7 1   
    13     6    17 1   
    14     7     8 1   
    15     7    18 1   
    16     7    19 1   
    17     8     9 1   
    18     8    20 1   
    19     9    10 1   
    20     9    11 2   
    21    10    21 1   
    22    10    22 1   
    23    10    23 1   
    24    11    24 1   
    25    11    25 1   
@<TRIPOS>SUBSTRUCTURE
     1 07V         1 TEMP              0 ****  ****    0 ROOT
