@<TRIPOS>MOLECULE
molecule
   25    25     1     0     0
SMALL
bcc


@<TRIPOS>ATOM
      1 CAG          0.0000     0.0000     0.0000 c3         1 07V      -0.170400
      2 CAJ          1.5150     0.0000     0.0000 c          1 07V       0.571300
      3 OAD          2.1420     0.0010    -1.0390 o          1 07V      -0.522100
      4 CAI          2.1980     0.0000     1.2980 ce         1 07V      -0.209400
      5 CAC          3.6800     0.2600     1.3610 c3         1 07V      -0.039900
      6 CAE          1.5210    -0.2270     2.4170 c2         1 07V      -0.115200
      7 CAF          0.0440    -0.4840     2.4460 c3         1 07V      -0.051200
      8 CAK         -0.4570    -0.9790     1.0900 c3         1 07V      -0.024500
      9 CAH         -1.9620    -1.0530     1.1050 c2         1 07V      -0.130400
     10 CAB         -2.7750     0.1910     1.3600 c3         1 07V      -0.054900
     11 CAA         -2.5640    -2.1980     0.8960 c2         1 07V      -0.216000
     12 H1          -0.3670     0.9950     0.2220 hc         1 07V       0.074200
     13 H2          -0.3670    -0.3270    -0.9650 hc         1 07V       0.074200
     14 H3           3.9160     1.1460     0.7850 hc         1 07V       0.047033
     15 H4           4.2130    -0.5900     0.9510 hc         1 07V       0.047033
     16 H5           3.9770     0.4090     2.3920 hc         1 07V       0.047033
     17 H6           2.0620    -0.2250     3.3550 ha         1 07V       0.129000
     18 H7          -0.4710     0.4350     2.6990 hc         1 07V       0.059700
     19 H8          -0.1700    -1.2350     3.1970 hc         1 07V       0.059700
     20 H9          -0.0430    -1.9610     0.8900 hc         1 07V       0.064700
     21 H10         -3.2840     0.1010     2.3120 hc         1 07V       0.042700
     22 H11         -2.1190     1.0530     1.3810 hc         1 07V       0.042700
     23 H12         -3.5060     0.3120     0.5700 hc         1 07V       0.042700
     24 H13         -3.6460    -2.2520     0.9060 ha         1 07V       0.115500
     25 H14         -1.9790    -3.0920     0.7120 ha         1 07V       0.115500
@<TRIPOS>BOND
     1    11     9 2
     2     7     6 1
     3     7     8 1
     4     6     4 2
     5     9     8 1
     6     9    10 1
     7     8     1 1
     8     4     5 1
     9     4     2 1
    10     1     2 1
    11     2     3 2
    12     1    12 1
    13     1    13 1
    14     5    14 1
    15     5    15 1
    16     5    16 1
    17     6    17 1
    18     7    18 1
    19     7    19 1
    20     8    20 1
    21    10    21 1
    22    10    22 1
    23    10    23 1
    24    11    24 1
    25    11    25 1
@<TRIPOS>SUBSTRUCTURE
     1 07V         1 TEMP              0 ****  ****    0 ROOT
