@<TRIPOS>MOLECULE
07V
   25    25     1     0     0
SMALL
bcc


@<TRIPOS>ATOM
      1 CAG         -0.0130    -0.0450     0.0660 c3         1 07V      -0.176400
      2 CAJ          1.4920    -0.0420     0.0870 c          1 07V       0.569300
      3 OAD          2.1450    -0.0420    -0.9630 o          1 07V      -0.533100
      4 CAI          2.1340    -0.0150     1.4200 ce         1 07V      -0.196400
      5 CAC          3.6090     0.1220     1.4340 c3         1 07V      -0.051900
      6 CAE          1.4010    -0.1100     2.5420 c2         1 07V      -0.109200
      7 CAF         -0.0750    -0.2310     2.5480 c3         1 07V      -0.059200
      8 CAK         -0.6000    -0.8140     1.2420 c3         1 07V      -0.020500
      9 CAH         -2.0940    -0.8520     1.1630 c2         1 07V      -0.111400
     10 CAB         -2.6390    -1.5190    -0.0490 c3         1 07V      -0.064900
     11 CAA         -2.9080    -0.3560     2.1000 c2         1 07V      -0.223000
     12 H1          -0.3680    -0.4900    -0.9010 hc         1 07V       0.075200
     13 H2          -0.3600     1.0230     0.0960 hc         1 07V       0.075200
     14 H3           3.9020     1.1150     1.0110 hc         1 07V       0.049367
     15 H4           4.0700    -0.6710     0.7930 hc         1 07V       0.049367
     16 H5           4.0190     0.0360     2.4690 hc         1 07V       0.049367
     17 H6           1.8820    -0.0850     3.5340 ha         1 07V       0.131000
     18 H7          -0.5110     0.7930     2.7140 hc         1 07V       0.061200
     19 H8          -0.4040    -0.8790     3.4040 hc         1 07V       0.061200
     20 H9          -0.2380    -1.8830     1.1750 hc         1 07V       0.063700
     21 H10         -3.7020    -1.8310     0.1040 hc         1 07V       0.044700
     22 H11         -2.6030    -0.8180    -0.9200 hc         1 07V       0.044700
     23 H12         -2.0390    -2.4270    -0.3060 hc         1 07V       0.044700
     24 H13         -2.5540     0.1450     3.0090 ha         1 07V       0.114000
     25 H14         -4.0000    -0.4250     2.0120 ha         1 07V       0.114000
@<TRIPOS>BOND
     1     1     2 1   
     2     1     8 1   
     3     1    12 1   
     4     1    13 1   
     5     2     3 2   
     6     2     4 1   
     7     4     5 1   
     8     4     6 2   
     9     5    14 1   
    10     5    15 1   
    11     5    16 1   
    12     6     7 1   
    13     6    17 1   
    14     7     8 1   
    15     7    18 1   
    16     7    19 1   
    17     8     9 1   
    18     8    20 1   
    19     9    10 1   
    20     9    11 2   
    21    10    21 1   
    22    10    22 1   
    23    10    23 1   
    24    11    24 1   
    25    11    25 1   
@<TRIPOS>SUBSTRUCTURE
     1 07V         1 TEMP              0 ****  ****    0 ROOT
