@<TRIPOS>MOLECULE
07Z
   35    37     1     0     0
SMALL
bcc


@<TRIPOS>ATOM
      1 C1          -0.1600     0.2730    -0.0450 ca         1 07Z       0.066600
      2 N2          -0.7180     0.5660    -1.3170 nu         1 07Z      -0.688300
      3 C3          -1.9360     0.0650    -1.7100 cc         1 07Z       0.712300
      4 N4          -2.3320     0.0390    -3.0150 nd         1 07Z      -0.805000
      5 C5          -3.6550    -0.4140    -3.0860 cd         1 07Z       0.722200
      6 C6          -4.2360    -0.7740    -1.8330 cc         1 07Z      -0.450000
      7 S7          -3.1380    -0.4750    -0.5810 ss         1 07Z      -0.089300
      8 N8          -4.3270    -0.4520    -4.2820 nv         1 07Z      -0.935500
      9 C9          -5.5350    -1.3570    -1.6630 c          1 07Z       0.650300
     10 C10         -5.9580    -1.6990    -0.2810 ca         1 07Z      -0.263900
     11 C11         -5.6510    -0.9100     0.8330 ca         1 07Z      -0.067000
     12 C12         -6.0900    -1.3210     2.0940 ca         1 07Z      -0.249300
     13 C13         -6.8320    -2.5110     2.1930 ca         1 07Z       0.403200
     14 N14         -7.1530    -3.2780     1.1310 nb         1 07Z      -0.679000
     15 C15         -6.7240    -2.8700    -0.0760 ca         1 07Z       0.434200
     16 O16         -6.3030    -1.6200    -2.6130 o          1 07Z      -0.617100
     17 C17          1.2000    -0.1000     0.0430 ca         1 07Z      -0.173000
     18 C18          1.7760    -0.3310     1.2870 ca         1 07Z      -0.089500
     19 C19          1.0260    -0.2100     2.4610 ca         1 07Z      -0.120600
     20 C20         -0.3190     0.1570     2.3710 ca         1 07Z      -0.089500
     21 C21         -0.9150     0.4030     1.1370 ca         1 07Z      -0.173000
     22 C22          1.6690    -0.4680     3.8190 c          1 07Z       0.909200
     23 O23          2.8900    -0.7860     3.8370 o          1 07Z      -0.822300
     24 O24          0.9410    -0.3460     4.8430 o          1 07Z      -0.822300
     25 HN2         -0.0510     0.7500    -2.0390 hn         1 07Z       0.439800
     26 HN8         -5.1900    -0.9490    -4.2930 hn         1 07Z       0.439300
     27 HN8A        -3.8070    -0.3930    -5.1230 hn         1 07Z       0.439300
     28 H11         -5.0830     0.0300     0.7250 ha         1 07Z       0.155000
     29 H12         -5.8570    -0.7330     2.9910 ha         1 07Z       0.149000
     30 H13         -7.1890    -2.8750     3.1730 h4         1 07Z       0.019100
     31 H15         -7.0040    -3.5020    -0.9400 h4         1 07Z       0.035100
     32 H17          1.8090    -0.2040    -0.8660 ha         1 07Z       0.117500
     33 H18          2.8370    -0.6190     1.3760 ha         1 07Z       0.161000
     34 H20         -0.8960     0.2510     3.3070 ha         1 07Z       0.161000
     35 H21         -1.9690     0.7250     1.1050 ha         1 07Z       0.117500
@<TRIPOS>BOND
     1     1     2 1   
     2     1    17 ar  
     3     1    21 ar  
     4     2     3 1   
     5     2    25 1   
     6     3     4 2   
     7     3     7 1   
     8     4     5 1   
     9     5     6 2   
    10     5     8 1   
    11     6     7 1   
    12     6     9 1   
    13     8    26 1   
    14     8    27 1   
    15     9    10 1   
    16     9    16 2   
    17    10    11 ar  
    18    10    15 ar  
    19    11    12 ar  
    20    11    28 1   
    21    12    13 ar  
    22    12    29 1   
    23    13    14 ar  
    24    13    30 1   
    25    14    15 ar  
    26    15    31 1   
    27    17    18 ar  
    28    17    32 1   
    29    18    19 ar  
    30    18    33 1   
    31    19    20 ar  
    32    19    22 1   
    33    20    21 ar  
    34    20    34 1   
    35    21    35 1   
    36    22    23 1   
    37    22    24 1   
@<TRIPOS>SUBSTRUCTURE
     1 07Z         1 TEMP              0 ****  ****    0 ROOT
