@<TRIPOS>MOLECULE
molecule
   35    37     1     0     0
SMALL
bcc


@<TRIPOS>ATOM
      1 C1           0.0000     0.0000     0.0000 ca         1 07Z       0.085600
      2 N2          -0.6950     0.0060    -1.2060 nu         1 07Z      -0.709300
      3 C3          -0.1240     0.5650    -2.3270 cc         1 07Z       0.789300
      4 N4           1.0080     1.2080    -2.3380 nd         1 07Z      -0.818000
      5 C5           1.4210     1.6830    -3.4890 cd         1 07Z       0.795200
      6 C6           0.5620     1.4160    -4.5390 cc         1 07Z      -0.402000
      7 S7          -0.8000     0.5010    -3.8950 ss         1 07Z      -0.279300
      8 N8           2.6050     2.3870    -3.6380 nv         1 07Z      -0.973500
      9 C9           0.7440     1.8000    -5.8800 c          1 07Z       0.655300
     10 C10         -0.3300     1.5620    -6.8710 ca         1 07Z      -0.270900
     11 C11         -1.6670     1.4760    -6.4640 ca         1 07Z      -0.069000
     12 C12         -2.6330     1.2520    -7.4300 ca         1 07Z      -0.266300
     13 C13         -2.2500     1.1220    -8.7530 ca         1 07Z       0.426200
     14 N14         -0.9820     1.2090    -9.1060 nb         1 07Z      -0.705000
     15 C15         -0.0280     1.4270    -8.2260 ca         1 07Z       0.463200
     16 O16          1.7860     2.3300    -6.2260 o          1 07Z      -0.604100
     17 C17          1.3920     0.0000     0.0000 ca         1 07Z      -0.166500
     18 C18          2.0820     0.0000     1.1900 ca         1 07Z      -0.088500
     19 C19          1.3830    -0.0020     2.4020 ca         1 07Z      -0.102600
     20 C20         -0.0140    -0.0030     2.3990 ca         1 07Z      -0.088500
     21 C21         -0.6990    -0.0020     1.2040 ca         1 07Z      -0.166500
     22 C22          2.1200    -0.0030     3.6790 c          1 07Z       0.880200
     23 O23          3.3350    -0.0030     3.6800 o          1 07Z      -0.834800
     24 O24          1.4450    -0.0050     4.8460 o          1 07Z      -0.834800
     25 HN2         -1.5890    -0.4390    -1.2700 hn         1 07Z       0.454800
     26 HN8          2.9590     2.5800    -4.5540 hn         1 07Z       0.457800
     27 HN8A         3.1130     2.6900    -2.8310 hn         1 07Z       0.457800
     28 H11         -1.9390     1.5810    -5.4200 ha         1 07Z       0.160000
     29 H12         -3.6780     1.1790    -7.1530 ha         1 07Z       0.135000
     30 H13         -3.0030     0.9440    -9.5110 h4         1 07Z       0.016100
     31 H15          1.0020     1.4910    -8.5550 h4         1 07Z       0.040100
     32 H17          1.9330     0.0020    -0.9390 ha         1 07Z       0.125000
     33 H18          3.1650     0.0000     1.1890 ha         1 07Z       0.156000
     34 H20         -0.5580    -0.0040     3.3350 ha         1 07Z       0.156000
     35 H21         -1.7820    -0.0020     1.2010 ha         1 07Z       0.125000
@<TRIPOS>BOND
     1     2     1 1
     2     1    17 ar
     3     1    21 ar
     4     3     2 1
     5     2    25 1
     6     4     3 2
     7     3     7 1
     8     5     4 1
     9     8     5 1
    10     5     6 2
    11     9     6 1
    12     6     7 1
    13     8    26 1
    14     8    27 1
    15    16     9 2
    16     9    10 1
    17    10    15 ar
    18    10    11 ar
    19    11    12 ar
    20    11    28 1
    21    12    13 ar
    22    12    29 1
    23    14    13 ar
    24    13    30 1
    25    15    14 ar
    26    15    31 1
    27    17    18 ar
    28    17    32 1
    29    18    19 ar
    30    18    33 1
    31    20    19 ar
    32    19    22 1
    33    21    20 ar
    34    20    34 1
    35    21    35 1
    36    22    23 1
    37    22    24 1
@<TRIPOS>SUBSTRUCTURE
     1 07Z         1 TEMP              0 ****  ****    0 ROOT
