@<TRIPOS>MOLECULE
083
   46    49     1     0     0
SMALL
bcc


@<TRIPOS>ATOM
      1 N2           0.1190    -0.8560     0.1690 nz         1 083      -0.830600
      2 C7           1.5210    -0.3410     0.0340 ce         1 083       0.495200
      3 C6           2.2690    -0.3940     1.3530 ca         1 083       0.566700
      4 N1           3.4900    -0.9910     1.3360 nb         1 083      -0.685000
      5 C4           4.1730    -0.9700     2.5160 ca         1 083       0.469600
      6 C5           5.5270    -1.5930     2.5830 c3         1 083      -0.165900
      7 C3           3.6230    -0.3640     3.6660 ca         1 083      -0.330600
      8 N6           1.6380     0.1960     2.4120 nb         1 083      -0.685000
      9 C2           2.3330     0.2110     3.5790 ca         1 083       0.469600
     10 C1           1.7390     0.8610     4.7840 c3         1 083      -0.165900
     11 N3           2.0880     0.1350    -1.0150 nf         1 083      -0.532700
     12 C8           1.5150     0.2640    -2.3060 ca         1 083       0.564300
     13 C21          2.3930     0.6240    -3.3970 ca         1 083      -0.083300
     14 C20          3.7840     0.8640    -3.2520 ca         1 083      -0.107000
     15 C19          4.5440     1.1960    -4.3480 ca         1 083      -0.098000
     16 C18          3.9560     1.3000    -5.6330 ca         1 083      -0.094000
     17 C17          2.6130     1.0730    -5.8010 ca         1 083      -0.117000
     18 C16          1.7960     0.7300    -4.6870 ca         1 083      -0.024000
     19 C15          0.4100     0.4870    -4.8350 ca         1 083      -0.156300
     20 C9          -0.3560     0.1650    -3.7120 cp         1 083       0.359300
     21 N4           0.1920     0.0590    -2.4700 nb         1 083      -0.724000
     22 C10         -1.8130    -0.0960    -3.8560 cp         1 083       0.334300
     23 N5          -2.3860    -1.0570    -3.0800 nb         1 083      -0.676000
     24 C14         -3.6960    -1.2900    -3.2570 ca         1 083       0.397200
     25 C13         -4.5020    -0.5960    -4.1820 ca         1 083      -0.220300
     26 C12         -3.9080     0.3980    -4.9570 ca         1 083      -0.083000
     27 C11         -2.5440     0.6600    -4.7960 ca         1 083      -0.220300
     28 H21N         0.0130    -1.3780     1.0420 hn         1 083       0.472133
     29 H22N        -0.1280    -1.4650    -0.6240 hn         1 083       0.472133
     30 H51C         5.8720    -1.6530     3.6440 hc         1 083       0.075533
     31 H52C         6.2570    -0.9760     2.0000 hc         1 083       0.075533
     32 H53C         5.5170    -2.6240     2.1470 hc         1 083       0.075533
     33 H3           4.1810    -0.3410     4.6130 ha         1 083       0.178000
     34 H11C         2.1650     0.4030     5.7120 hc         1 083       0.075533
     35 H12C         0.6260     0.7580     4.8100 hc         1 083       0.075533
     36 H13C         1.9910     1.9520     4.7740 hc         1 083       0.075533
     37 H20          4.2540     0.7860    -2.2590 ha         1 083       0.163000
     38 H19          5.6250     1.3850    -4.2400 ha         1 083       0.155000
     39 H18          4.5920     1.5670    -6.4930 ha         1 083       0.157000
     40 H17          2.1440     1.1500    -6.7950 ha         1 083       0.153000
     41 H15         -0.0490     0.5440    -5.8340 ha         1 083       0.168000
     42 H11         -2.0540     1.4470    -5.3860 ha         1 083       0.152000
     43 H14         -4.1290    -2.0860    -2.6230 h4         1 083       0.029100
     44 H13         -5.5690    -0.8380    -4.2820 ha         1 083       0.161000
     45 H12         -4.5000     0.9720    -5.6860 ha         1 083       0.157000
     46 H23         -0.5290    -0.0570     0.1730 hn         1 083       0.472133
@<TRIPOS>BOND
     1     1     2 1   
     2     1    28 1   
     3     1    29 1   
     4     1    46 1   
     5     2     3 1   
     6     2    11 2   
     7     3     4 ar  
     8     3     8 ar  
     9     4     5 ar  
    10     5     6 1   
    11     5     7 ar  
    12     6    30 1   
    13     6    31 1   
    14     6    32 1   
    15     7     9 ar  
    16     7    33 1   
    17     8     9 ar  
    18     9    10 1   
    19    10    34 1   
    20    10    35 1   
    21    10    36 1   
    22    11    12 1   
    23    12    13 ar  
    24    12    21 ar  
    25    13    14 ar  
    26    13    18 ar  
    27    14    15 ar  
    28    14    37 1   
    29    15    16 ar  
    30    15    38 1   
    31    16    17 ar  
    32    16    39 1   
    33    17    18 ar  
    34    17    40 1   
    35    18    19 ar  
    36    19    20 ar  
    37    19    41 1   
    38    20    21 ar  
    39    20    22 1   
    40    22    23 ar  
    41    22    27 ar  
    42    23    24 ar  
    43    24    25 ar  
    44    24    43 1   
    45    25    26 ar  
    46    25    44 1   
    47    26    27 ar  
    48    26    45 1   
    49    27    42 1   
@<TRIPOS>SUBSTRUCTURE
     1 083         1 TEMP              0 ****  ****    0 ROOT
