@<TRIPOS>MOLECULE
083
   46    49     1     0     0
SMALL
bcc


@<TRIPOS>ATOM
      1 N2           0.0000     0.0000     0.0000 nz         1 083       0.145400
      2 C7           1.3730     0.0000     0.0000 ce         1 083       0.071200
      3 C6           2.1140     0.0000     1.2830 ca         1 083       0.531700
      4 N1           1.4350    -0.0010     2.4220 nb         1 083      -0.607000
      5 C4           2.0650    -0.0020     3.5830 ca         1 083       0.436600
      6 C5           1.2850    -0.0020     4.8740 c3         1 083      -0.044900
      7 C3           3.4530    -0.0010     3.6010 ca         1 083      -0.295600
      8 N6           3.4400    -0.0070     1.2640 nb         1 083      -0.607000
      9 C2           4.1310    -0.0020     2.3910 ca         1 083       0.436600
     10 C1           5.6380    -0.0010     2.3600 c3         1 083      -0.044900
     11 N3           2.0290     0.0010    -1.1380 nf         1 083      -0.253700
     12 C8           1.3540     0.1110    -2.3130 ca         1 083       0.365300
     13 C21          1.1860     1.4160    -2.9510 ca         1 083      -0.133300
     14 C20          1.7050     2.5870    -2.3910 ca         1 083      -0.119000
     15 C19          1.5180     3.7780    -3.0320 ca         1 083      -0.050000
     16 C18          0.8200     3.8440    -4.2350 ca         1 083      -0.072000
     17 C17          0.3010     2.7210    -4.8080 ca         1 083      -0.061000
     18 C16          0.4760     1.4810    -4.1750 ca         1 083      -0.030000
     19 C15         -0.0340     0.2860    -4.7160 ca         1 083      -0.104300
     20 C9           0.1710    -0.9020    -4.0430 cp         1 083       0.300300
     21 N4           0.8440    -0.9640    -2.8950 nb         1 083      -0.554000
     22 C10         -0.3710    -2.1550    -4.6220 cp         1 083       0.291300
     23 N5          -1.0400    -2.1150    -5.7670 nb         1 083      -0.568000
     24 C14         -1.5380    -3.2040    -6.3150 ca         1 083       0.410200
     25 C13         -1.3780    -4.4390    -5.7120 ca         1 083      -0.191300
     26 C12         -0.6850    -4.5260    -4.5140 ca         1 083      -0.065000
     27 C11         -0.1690    -3.3660    -3.9630 ca         1 083      -0.189300
     28 H21N        -0.3340     0.9200    -0.2110 hn         1 083       0.229467
     29 H22N        -0.3340    -0.2770     0.9020 hn         1 083       0.229467
     30 H51C         1.6980    -0.7460     5.5440 hc         1 083       0.030033
     31 H52C         0.2480    -0.2370     4.6690 hc         1 083       0.030033
     32 H53C         1.3500     0.9760     5.3350 hc         1 083       0.030033
     33 H3           3.9940     0.0000     4.5390 ha         1 083       0.147000
     34 H11C         6.0140     0.6820     3.1110 hc         1 083       0.030033
     35 H12C         5.9790     0.3150     1.3810 hc         1 083       0.030033
     36 H13C         6.0040    -1.0000     2.5640 hc         1 083       0.030033
     37 H20          2.2500     2.5510    -1.4560 ha         1 083       0.115000
     38 H19          1.9200     4.6860    -2.5990 ha         1 083       0.118000
     39 H18          0.6860     4.8020    -4.7220 ha         1 083       0.122000
     40 H17         -0.2400     2.7850    -5.7440 ha         1 083       0.127000
     41 H15         -0.5860     0.2990    -5.6480 ha         1 083       0.155000
     42 H11          0.3780    -3.3980    -3.0280 ha         1 083       0.121000
     43 H14         -2.0790    -3.1330    -7.2510 h4         1 083      -0.008900
     44 H13         -1.7930    -5.3280    -6.1700 ha         1 083       0.123000
     45 H12         -0.5460    -5.4820    -4.0230 ha         1 083       0.117000
     46 H23         -0.3340    -0.6560    -0.6780 hn         1 083       0.229467
@<TRIPOS>BOND
     1     1     2 1   
     2     1    28 1   
     3     1    29 1   
     4     1    46 1   
     5     2     3 1   
     6     2    11 2   
     7     3     4 ar  
     8     3     8 ar  
     9     4     5 ar  
    10     5     6 1   
    11     5     7 ar  
    12     6    30 1   
    13     6    31 1   
    14     6    32 1   
    15     7     9 ar  
    16     7    33 1   
    17     8     9 ar  
    18     9    10 1   
    19    10    34 1   
    20    10    35 1   
    21    10    36 1   
    22    11    12 1   
    23    12    13 ar  
    24    12    21 ar  
    25    13    14 ar  
    26    13    18 ar  
    27    14    15 ar  
    28    14    37 1   
    29    15    16 ar  
    30    15    38 1   
    31    16    17 ar  
    32    16    39 1   
    33    17    18 ar  
    34    17    40 1   
    35    18    19 ar  
    36    19    20 ar  
    37    19    41 1   
    38    20    21 ar  
    39    20    22 1   
    40    22    23 ar  
    41    22    27 ar  
    42    23    24 ar  
    43    24    25 ar  
    44    24    43 1   
    45    25    26 ar  
    46    25    44 1   
    47    26    27 ar  
    48    26    45 1   
    49    27    42 1   
@<TRIPOS>SUBSTRUCTURE
     1 083         1 TEMP              0 ****  ****    0 ROOT
