@<TRIPOS>MOLECULE
molecule
   46    49     1     0     0
SMALL
bcc


@<TRIPOS>ATOM
      1 N2           0.0000     0.0000     0.0000 nz         1 083      -0.783600
      2 C7           1.3730     0.0000     0.0000 ce         1 083       0.425200
      3 C6           2.1140     0.0000     1.2830 ca         1 083       0.622700
      4 N1           1.4350    -0.0010     2.4220 nb         1 083      -0.730500
      5 C4           2.0650    -0.0020     3.5830 ca         1 083       0.490600
      6 C5           1.2850    -0.0020     4.8740 c3         1 083      -0.150400
      7 C3           3.4530    -0.0010     3.6010 ca         1 083      -0.333600
      8 N6           3.4400    -0.0070     1.2640 nb         1 083      -0.730500
      9 C2           4.1310    -0.0020     2.3910 ca         1 083       0.490600
     10 C1           5.6380    -0.0010     2.3600 c3         1 083      -0.150400
     11 N3           2.0290     0.0010    -1.1380 nf         1 083      -0.458700
     12 C8           1.3540     0.1110    -2.3130 ca         1 083       0.500300
     13 C21          1.1860     1.4160    -2.9510 ca         1 083      -0.143300
     14 C20          1.7050     2.5870    -2.3910 ca         1 083      -0.138000
     15 C19          1.5180     3.7780    -3.0320 ca         1 083      -0.089000
     16 C18          0.8200     3.8440    -4.2350 ca         1 083      -0.102000
     17 C17          0.3010     2.7210    -4.8080 ca         1 083      -0.096000
     18 C16          0.4760     1.4810    -4.1750 ca         1 083      -0.026000
     19 C15         -0.0340     0.2860    -4.7160 ca         1 083      -0.142300
     20 C9           0.1710    -0.9020    -4.0430 cp         1 083       0.355300
     21 N4           0.8440    -0.9640    -2.8950 nb         1 083      -0.687000
     22 C10         -0.3710    -2.1550    -4.6220 cp         1 083       0.350300
     23 N5          -1.0400    -2.1150    -5.7670 nb         1 083      -0.690000
     24 C14         -1.5380    -3.2040    -6.3150 ca         1 083       0.430200
     25 C13         -1.3780    -4.4390    -5.7120 ca         1 083      -0.229300
     26 C12         -0.6850    -4.5260    -4.5140 ca         1 083      -0.093000
     27 C11         -0.1690    -3.3660    -3.9630 ca         1 083      -0.216300
     28 H21N        -0.3340    -0.7990    -0.5020 hn         1 083       0.474467
     29 H22N        -0.3340     0.8340    -0.4410 hn         1 083       0.474467
     30 H51C         1.5810    -0.8540     5.4740 hc         1 083       0.072867
     31 H52C         0.2260    -0.0640     4.6560 hc         1 083       0.072867
     32 H53C         1.4890     0.9120     5.4190 hc         1 083       0.072867
     33 H3           3.9940     0.0000     4.5390 ha         1 083       0.175000
     34 H11C         6.0140    -0.7070     3.0910 hc         1 083       0.072867
     35 H12C         5.9790    -0.2880     1.3720 hc         1 083       0.072867
     36 H13C         6.0040     0.9910     2.5940 hc         1 083       0.072867
     37 H20          2.2500     2.5510    -1.4560 ha         1 083       0.144000
     38 H19          1.9200     4.6860    -2.5990 ha         1 083       0.151000
     39 H18          0.6860     4.8020    -4.7220 ha         1 083       0.155000
     40 H17         -0.2400     2.7850    -5.7440 ha         1 083       0.160000
     41 H15         -0.5860     0.2990    -5.6480 ha         1 083       0.189000
     42 H11          0.3780    -3.3980    -3.0280 ha         1 083       0.149000
     43 H14         -2.0790    -3.1330    -7.2510 h4         1 083       0.038100
     44 H13         -1.7930    -5.3280    -6.1700 ha         1 083       0.153000
     45 H12         -0.5460    -5.4820    -4.0230 ha         1 083       0.150000
     46 H23         -0.3340    -0.0170     0.9430 hn         1 083       0.474467
@<TRIPOS>BOND
     1     1     2 1
     2     2     3 1
     3     2    11 2
     4     3     4 ar
     5     3     8 ar
     6     4     5 ar
     7     5     6 1
     8     5     7 ar
     9     7     9 ar
    10     8     9 ar
    11     9    10 1
    12    11    12 1
    13    12    13 ar
    14    12    21 ar
    15    13    14 ar
    16    13    18 ar
    17    14    15 ar
    18    15    16 ar
    19    16    17 ar
    20    17    18 ar
    21    18    19 ar
    22    19    20 ar
    23    20    21 ar
    24    20    22 1
    25    22    23 ar
    26    22    27 ar
    27    23    24 ar
    28    24    25 ar
    29    25    26 ar
    30    26    27 ar
    31     1    28 1
    32     1    29 1
    33     6    30 1
    34     6    31 1
    35     6    32 1
    36     7    33 1
    37    10    34 1
    38    10    35 1
    39    10    36 1
    40    14    37 1
    41    15    38 1
    42    16    39 1
    43    17    40 1
    44    19    41 1
    45    27    42 1
    46    24    43 1
    47    25    44 1
    48    26    45 1
    49    46     1 1
@<TRIPOS>SUBSTRUCTURE
     1 083         1 TEMP              0 ****  ****    0 ROOT
