@<TRIPOS>MOLECULE
084
   66    70     1     0     0
SMALL
bcc


@<TRIPOS>ATOM
      1 C50          0.1960    -0.1670    -0.7780 c3         1 084      -0.095100
      2 C49          1.6120     0.2730    -0.3860 c3         1 084       0.248800
      3 N48          1.9000    -0.1050     0.9900 nu         1 084      -0.807900
      4 C40          3.2320    -0.1600     1.4520 ca         1 084       0.866900
      5 N39          3.4200     0.0180     2.8240 nb         1 084      -0.743000
      6 C38          4.6650    -0.1640     3.2790 ca         1 084       0.463200
      7 C37          5.7520    -0.5060     2.4540 ca         1 084      -0.397600
      8 C12          5.4830    -0.6510     1.0760 ca         1 084       0.551800
      9 N41          4.2420    -0.4690     0.5570 nb         1 084      -0.752000
     10 C1           6.5820    -1.0060     0.1800 cc         1 084      -0.263100
     11 C5           7.6940    -1.8600     0.4220 cd         1 084       0.375800
     12 N4           8.5210    -1.8820    -0.7030 nd         1 084      -0.654000
     13 C3           7.9360    -1.0760    -1.6270 cc         1 084       0.421800
     14 C10          8.4660    -0.7880    -2.9990 c3         1 084      -0.086000
     15 C13          9.2300     0.5310    -3.0080 c3         1 084      -0.073400
     16 C14          9.7720     0.8190    -4.4090 c3         1 084       0.163300
     17 N15         10.5570    -0.2700    -4.9530 n7         1 084      -0.821200
     18 C16          9.9030    -1.5620    -4.8910 c3         1 084       0.163300
     19 C17          9.3760    -1.9030    -3.4970 c3         1 084      -0.073400
     20 N2           6.7440    -0.5180    -1.1250 na         1 084      -0.169900
     21 C6           5.8570     0.3610    -1.8170 c3         1 084       0.020600
     22 C11          7.9830    -2.6480     1.6090 ca         1 084      -0.112500
     23 C28          9.2910    -2.6980     2.1120 ca         1 084      -0.055000
     24 C29          9.5670    -3.4720     3.2400 ca         1 084      -0.175300
     25 C30          8.5600    -4.2070     3.8690 ca         1 084      -0.081000
     26 C31          7.2630    -4.1640     3.3600 ca         1 084      -0.140000
     27 C32          6.9730    -3.3920     2.2360 ca         1 084      -0.089000
     28 C44         10.9900    -3.5320     3.7820 c3         1 084       0.688200
     29 F45         11.7540    -4.5450     3.2530 f          1 084      -0.237967
     30 F46         11.0750    -3.7280     5.1400 f          1 084      -0.237967
     31 F47         11.7370    -2.4010     3.5620 f          1 084      -0.237967
     32 C54          1.7520     1.7560    -0.6490 ca         1 084      -0.120300
     33 C60          0.9710     2.6820     0.0510 ca         1 084      -0.119000
     34 C59          1.0950     4.0460    -0.2100 ca         1 084      -0.129000
     35 C58          2.0000     4.4940    -1.1730 ca         1 084      -0.123000
     36 C57          2.7820     3.5750    -1.8710 ca         1 084      -0.129000
     37 C56          2.6630     2.2110    -1.6080 ca         1 084      -0.119000
     38 H501         0.0810    -1.2710    -0.6570 hc         1 084       0.047367
     39 H502        -0.5760     0.3460    -0.1550 hc         1 084       0.047367
     40 H503         0.0250     0.1000    -1.8480 hc         1 084       0.047367
     41 H49          2.3320    -0.2840    -1.0600 h1         1 084       0.088700
     42 H48          1.2610     0.2950     1.6490 hn         1 084       0.420800
     43 H38          4.8020    -0.0200     4.3670 h4         1 084       0.031100
     44 H37          6.7600    -0.6520     2.8570 ha         1 084       0.168000
     45 H10          7.5930    -0.7090    -3.7100 hc         1 084       0.052700
     46 H131         8.5590     1.3740    -2.7030 hc         1 084       0.062450
     47 H132        10.0750     0.4790    -2.2740 hc         1 084       0.062450
     48 H141         8.8960     1.0840    -5.0740 h1         1 084       0.027950
     49 H142        10.4440     1.7220    -4.3580 h1         1 084       0.027950
     50 H15         10.8220    -0.0630    -5.8980 hn         1 084       0.364800
     51 H161         9.0430    -1.6360    -5.6220 h1         1 084       0.027950
     52 H162        10.6670    -2.3350    -5.1870 h1         1 084       0.027950
     53 H171         8.8110    -2.8680    -3.5470 hc         1 084       0.062450
     54 H172        10.2360    -2.0430    -2.7910 hc         1 084       0.062450
     55 H61          6.3740     0.7870    -2.7180 h1         1 084       0.061700
     56 H62          5.5460     1.2040    -1.1430 h1         1 084       0.061700
     57 H63          4.9380    -0.1980    -2.1460 h1         1 084       0.061700
     58 H28         10.0980    -2.1300     1.6200 ha         1 084       0.166000
     59 H30          8.7930    -4.8120     4.7580 ha         1 084       0.150000
     60 H31          6.4650    -4.7460     3.8450 ha         1 084       0.143000
     61 H32          5.9490    -3.3630     1.8340 ha         1 084       0.147000
     62 H60          0.2510     2.3350     0.8070 ha         1 084       0.131000
     63 H59          0.4790     4.7690     0.3440 ha         1 084       0.133000
     64 H58          2.0960     5.5700    -1.3800 ha         1 084       0.134000
     65 H57          3.4970     3.9260    -2.6300 ha         1 084       0.133000
     66 H56          3.2920     1.4890    -2.1520 ha         1 084       0.131000
@<TRIPOS>BOND
     1     1     2 1   
     2     1    38 1   
     3     1    39 1   
     4     1    40 1   
     5     2     3 1   
     6     2    32 1   
     7     2    41 1   
     8     3     4 1   
     9     3    42 1   
    10     4     5 ar  
    11     4     9 ar  
    12     5     6 ar  
    13     6     7 ar  
    14     6    43 1   
    15     7     8 ar  
    16     7    44 1   
    17     8     9 ar  
    18     8    10 1   
    19    10    11 2   
    20    10    20 1   
    21    11    12 1   
    22    11    22 1   
    23    12    13 2   
    24    13    14 1   
    25    13    20 1   
    26    14    15 1   
    27    14    19 1   
    28    14    45 1   
    29    15    16 1   
    30    15    46 1   
    31    15    47 1   
    32    16    17 1   
    33    16    48 1   
    34    16    49 1   
    35    17    18 1   
    36    17    50 1   
    37    18    19 1   
    38    18    51 1   
    39    18    52 1   
    40    19    53 1   
    41    19    54 1   
    42    20    21 1   
    43    21    55 1   
    44    21    56 1   
    45    21    57 1   
    46    22    23 ar  
    47    22    27 ar  
    48    23    24 ar  
    49    23    58 1   
    50    24    25 ar  
    51    24    28 1   
    52    25    26 ar  
    53    25    59 1   
    54    26    27 ar  
    55    26    60 1   
    56    27    61 1   
    57    28    29 1   
    58    28    30 1   
    59    28    31 1   
    60    32    33 ar  
    61    32    37 ar  
    62    33    34 ar  
    63    33    62 1   
    64    34    35 ar  
    65    34    63 1   
    66    35    36 ar  
    67    35    64 1   
    68    36    37 ar  
    69    36    65 1   
    70    37    66 1   
@<TRIPOS>SUBSTRUCTURE
     1 084         1 TEMP              0 ****  ****    0 ROOT
