@<TRIPOS>MOLECULE
084
   66    70     1     0     0
SMALL
bcc


@<TRIPOS>ATOM
      1 C50          0.0000     0.0000     0.0000 c3         1 084      -0.016100
      2 C49          1.5290     0.0000     0.0000 c3         1 084       0.193800
      3 N48          2.0180     0.0000     1.3820 nu         1 084      -0.482900
      4 C40          2.1490    -1.1940     2.0690 ca         1 084       0.730900
      5 N39          1.8280    -2.3280     1.4620 nb         1 084      -0.708000
      6 C38          1.9400    -3.4920     2.0830 ca         1 084       0.501200
      7 C37          2.3990    -3.5210     3.3870 ca         1 084      -0.448600
      8 C12          2.7300    -2.3080     4.0050 ca         1 084       0.573800
      9 N41          2.5970    -1.1750     3.3140 nb         1 084      -0.680000
     10 C1           3.2230    -2.2860     5.3940 cc         1 084      -0.483100
     11 C5           4.2390    -1.4940     5.9030 cd         1 084       0.392800
     12 N4           4.3600    -1.7900     7.2090 nd         1 084      -0.594000
     13 C3           3.4960    -2.7110     7.5320 cc         1 084       0.208800
     14 C10          3.3310    -3.3070     8.9070 c3         1 084      -0.053000
     15 C13          4.6430    -3.9700     9.3380 c3         1 084      -0.022400
     16 C14          4.5040    -4.4710    10.7770 c3         1 084       0.140800
     17 N15          4.2420    -3.3390    11.6730 n7         1 084      -0.564200
     18 C16          2.9290    -2.7930    11.3150 c3         1 084       0.140800
     19 C17          2.9820    -2.2000     9.9060 c3         1 084      -0.022400
     20 N2           2.7700    -3.0510     6.4460 na         1 084       0.328100
     21 C6           1.7000    -4.0490     6.3950 c3         1 084      -0.034400
     22 C11          5.0380    -0.5000     5.1510 ca         1 084      -0.090500
     23 C28          5.3650     0.7230     5.7360 ca         1 084      -0.016000
     24 C29          6.1140     1.6440     5.0320 ca         1 084      -0.217300
     25 C30          6.5320     1.3590     3.7430 ca         1 084      -0.053000
     26 C31          6.2050     0.1500     3.1550 ca         1 084      -0.113000
     27 C32          5.4620    -0.7810     3.8520 ca         1 084      -0.055000
     28 C44          6.4730     2.9630     5.6650 c3         1 084       0.641200
     29 F45          7.2250     3.7240     4.7630 f          1 084      -0.209633
     30 F46          5.3040     3.6550     5.9970 f          1 084      -0.209633
     31 F47          7.2250     2.7350     6.8220 f          1 084      -0.209633
     32 C54          2.0330     1.2300    -0.7100 ca         1 084      -0.108300
     33 C60          2.4580     1.1440    -2.0230 ca         1 084      -0.094000
     34 C59          2.9210     2.2720    -2.6750 ca         1 084      -0.094500
     35 C58          2.9550     3.4870    -2.0140 ca         1 084      -0.098000
     36 C57          2.5270     3.5720    -0.7030 ca         1 084      -0.094500
     37 C56          2.0620     2.4450    -0.0520 ca         1 084      -0.094000
     38 H501        -0.3610     0.6070     0.8220 hc         1 084       0.013367
     39 H502        -0.3610     0.4080    -0.9360 hc         1 084       0.013367
     40 H503        -0.3610    -1.0150     0.1150 hc         1 084       0.013367
     41 H49          1.8900    -0.8850    -0.5100 h1         1 084       0.057700
     42 H48          2.2310     0.8650     1.8370 hn         1 084       0.311800
     43 H38          1.6750    -4.4110     1.5750 h4         1 084      -0.019900
     44 H37          2.4970    -4.4600     3.9190 ha         1 084       0.127000
     45 H10          2.5400    -4.0460     8.8950 hc         1 084       0.017700
     46 H131         5.4480    -3.2460     9.2840 hc         1 084       0.032200
     47 H132         4.8570    -4.8060     8.6830 hc         1 084       0.032200
     48 H141         3.6810    -5.1720    10.8350 h1         1 084       0.003700
     49 H142         5.4230    -4.9610    11.0770 h1         1 084       0.003700
     50 H15          4.2230    -3.6610    12.6200 hn         1 084       0.250800
     51 H161         2.6590    -2.0170    12.0210 h1         1 084       0.003700
     52 H162         2.1910    -3.5850    11.3440 h1         1 084       0.003700
     53 H171         3.7390    -1.4270     9.8680 hc         1 084       0.032200
     54 H172         2.0150    -1.7800     9.6550 hc         1 084       0.032200
     55 H61          2.1330    -5.0410     6.3410 h1         1 084       0.031700
     56 H62          1.0890    -3.9700     7.2860 h1         1 084       0.031700
     57 H63          1.0850    -3.8760     5.5200 h1         1 084       0.031700
     58 H28          5.0390     0.9460     6.7440 ha         1 084       0.126000
     59 H30          7.1180     2.0850     3.1930 ha         1 084       0.117000
     60 H31          6.5350    -0.0670     2.1460 ha         1 084       0.108000
     61 H32          5.2080    -1.7270     3.3900 ha         1 084       0.108000
     62 H60          2.4310     0.1930    -2.5400 ha         1 084       0.108000
     63 H59          3.2550     2.2050    -3.7030 ha         1 084       0.104500
     64 H58          3.3180     4.3710    -2.5240 ha         1 084       0.104000
     65 H57          2.5520     4.5240    -0.1860 ha         1 084       0.104500
     66 H56          1.7260     2.5120     0.9760 ha         1 084       0.108000
@<TRIPOS>BOND
     1     1     2 1   
     2     1    38 1   
     3     1    39 1   
     4     1    40 1   
     5     2     3 1   
     6     2    32 1   
     7     2    41 1   
     8     3     4 1   
     9     3    42 1   
    10     4     5 ar  
    11     4     9 ar  
    12     5     6 ar  
    13     6     7 ar  
    14     6    43 1   
    15     7     8 ar  
    16     7    44 1   
    17     8     9 ar  
    18     8    10 1   
    19    10    11 2   
    20    10    20 1   
    21    11    12 1   
    22    11    22 1   
    23    12    13 2   
    24    13    14 1   
    25    13    20 1   
    26    14    15 1   
    27    14    19 1   
    28    14    45 1   
    29    15    16 1   
    30    15    46 1   
    31    15    47 1   
    32    16    17 1   
    33    16    48 1   
    34    16    49 1   
    35    17    18 1   
    36    17    50 1   
    37    18    19 1   
    38    18    51 1   
    39    18    52 1   
    40    19    53 1   
    41    19    54 1   
    42    20    21 1   
    43    21    55 1   
    44    21    56 1   
    45    21    57 1   
    46    22    23 ar  
    47    22    27 ar  
    48    23    24 ar  
    49    23    58 1   
    50    24    25 ar  
    51    24    28 1   
    52    25    26 ar  
    53    25    59 1   
    54    26    27 ar  
    55    26    60 1   
    56    27    61 1   
    57    28    29 1   
    58    28    30 1   
    59    28    31 1   
    60    32    33 ar  
    61    32    37 ar  
    62    33    34 ar  
    63    33    62 1   
    64    34    35 ar  
    65    34    63 1   
    66    35    36 ar  
    67    35    64 1   
    68    36    37 ar  
    69    36    65 1   
    70    37    66 1   
@<TRIPOS>SUBSTRUCTURE
     1 084         1 TEMP              0 ****  ****    0 ROOT
