@<TRIPOS>MOLECULE
085
   46    50     1     0     0
SMALL
bcc


@<TRIPOS>ATOM
      1 CAM          0.1150    -0.1790     0.0020 ca         1 085      -0.106000
      2 CAZ          1.4820    -0.2320    -0.1400 ca         1 085       0.056100
      3 OAS          2.4460    -0.4530     0.8370 os         1 085      -0.331900
      4 CAN          3.7320    -0.4300     0.1680 c3         1 085       0.320200
      5 OAR          3.4930    -0.1600    -1.2350 os         1 085      -0.322900
      6 CAY          2.1210    -0.0530    -1.3990 ca         1 085       0.086100
      7 CAL          1.4010     0.1840    -2.5510 ca         1 085      -0.115000
      8 CAK          0.0020     0.2410    -2.4150 ca         1 085      -0.071000
      9 CAW         -0.6280     0.0660    -1.1790 ca         1 085      -0.052000
     10 CBB         -2.0750     0.1390    -1.0940 cc         1 085      -0.043600
     11 NAP         -2.7360     0.8540    -0.1040 na         1 085      -0.282900
     12 CBA         -4.1220     0.7310    -0.3390 cc         1 085       0.363000
     13 CAV         -5.1560     1.3230     0.4820 ca         1 085       0.017500
     14 CAJ         -6.5100     1.1350     0.1370 ca         1 085      -0.135500
     15 CAH         -7.5190     1.6870     0.9110 ca         1 085      -0.047000
     16 CAI         -4.8490     2.0860     1.6300 ca         1 085      -0.135500
     17 CAG         -5.8550     2.6370     2.4060 ca         1 085      -0.047000
     18 CAU         -7.2050     2.4450     2.0600 ca         1 085      -0.238600
     19 CAT         -8.3250     2.9780     2.8060 c          1 085       0.580700
     20 OAB         -9.5260     2.9110     2.5840 o          1 085      -0.429100
     21 NAA         -8.0030     3.7500     4.0850 nz         1 085      -0.764400
     22 NAQ         -4.3460    -0.0410    -1.4520 nd         1 085      -0.601000
     23 CBC         -3.1030    -0.4150    -1.9270 cd         1 085       0.272300
     24 CAX         -2.9220    -1.2930    -3.0870 ca         1 085       0.359300
     25 CAF         -3.8150    -1.1920    -4.1760 ca         1 085      -0.211300
     26 CAD         -3.6400    -2.0470    -5.2680 ca         1 085      -0.096000
     27 CAC         -2.5970    -2.9690    -5.2470 ca         1 085      -0.230300
     28 CAE         -1.7550    -2.9980    -4.1170 ca         1 085       0.397200
     29 NAO         -1.8990    -2.1890    -3.0550 nb         1 085      -0.654000
     30 H1          -0.3720    -0.3480     0.9710 ha         1 085       0.150000
     31 H2           4.3390     0.4070     0.5930 h2         1 085       0.083200
     32 H3           1.8870     0.3180    -3.5260 ha         1 085       0.168000
     33 H4          -0.6090     0.4210    -3.3140 ha         1 085       0.152000
     34 H5          -2.3030     1.3480     0.6330 hn         1 085       0.310700
     35 H6          -6.7770     0.5410    -0.7560 ha         1 085       0.173000
     36 H7          -8.5760     1.5340     0.6320 ha         1 085       0.146000
     37 H8          -3.8030     2.2560     1.9300 ha         1 085       0.173000
     38 H9          -5.5610     3.2240     3.2890 ha         1 085       0.146000
     39 H10         -7.4840     3.1490     4.7300 hn         1 085       0.464133
     40 H11         -7.4340     4.5690     3.8610 hn         1 085       0.464133
     41 H13         -4.6320    -0.4580    -4.1630 ha         1 085       0.154000
     42 H14         -4.3220    -1.9900    -6.1290 ha         1 085       0.147000
     43 H15         -2.4270    -3.6600    -6.0830 ha         1 085       0.154000
     44 H16         -0.9160    -3.7160    -4.0550 h4         1 085       0.032100
     45 H17          4.2020    -1.4400     0.2620 h2         1 085       0.083200
     46 HAA3        -8.8760     4.0550     4.5310 hn         1 085       0.464133
@<TRIPOS>BOND
     1     1     2 ar  
     2     1     9 ar  
     3     1    30 1   
     4     2     3 1   
     5     2     6 ar  
     6     3     4 1   
     7     4     5 1   
     8     4    31 1   
     9     4    45 1   
    10     5     6 1   
    11     6     7 ar  
    12     7     8 ar  
    13     7    32 1   
    14     8     9 ar  
    15     8    33 1   
    16     9    10 1   
    17    10    11 1   
    18    10    23 2   
    19    11    12 1   
    20    11    34 1   
    21    12    13 1   
    22    12    22 2   
    23    13    14 ar  
    24    13    16 ar  
    25    14    15 ar  
    26    14    35 1   
    27    15    18 ar  
    28    15    36 1   
    29    16    17 ar  
    30    16    37 1   
    31    17    18 ar  
    32    17    38 1   
    33    18    19 1   
    34    19    20 2   
    35    19    21 1   
    36    21    39 1   
    37    21    40 1   
    38    21    46 1   
    39    22    23 1   
    40    23    24 1   
    41    24    25 ar  
    42    24    29 ar  
    43    25    26 ar  
    44    25    41 1   
    45    26    27 ar  
    46    26    42 1   
    47    27    28 ar  
    48    27    43 1   
    49    28    29 ar  
    50    28    44 1   
@<TRIPOS>SUBSTRUCTURE
     1 085         1 TEMP              0 ****  ****    0 ROOT
