@<TRIPOS>MOLECULE
molecule
   46    50     1     0     0
SMALL
bcc


@<TRIPOS>ATOM
      1 CAM          0.0000     0.0000     0.0000 ca         1 085      -0.101000
      2 CAZ          1.3810     0.0000     0.0000 ca         1 085       0.048100
      3 OAS          2.2850     0.0000     1.0240 os         1 085      -0.325900
      4 CAN          3.5320     0.4120     0.4360 c3         1 085       0.332200
      5 OAR          3.4170    -0.0010    -0.9390 os         1 085      -0.319900
      6 CAY          2.0780    -0.0010    -1.2080 ca         1 085       0.076100
      7 CAL          1.3860     0.0000    -2.4110 ca         1 085      -0.117000
      8 CAK          0.0070     0.0010    -2.4180 ca         1 085      -0.061000
      9 CAW         -0.6970     0.0010    -1.2110 ca         1 085      -0.038000
     10 CBB         -2.1730    -0.0040    -1.2160 cc         1 085      -0.070600
     11 NAP         -2.9940    -0.7830    -0.4390 na         1 085      -0.273900
     12 CBA         -4.2820    -0.4630    -0.7680 cc         1 085       0.390000
     13 CAV         -5.4920    -1.0640    -0.1710 ca         1 085       0.004500
     14 CAJ         -5.3710    -2.0400     0.8220 ca         1 085      -0.120000
     15 CAH         -6.4950    -2.5980     1.3760 ca         1 085      -0.057500
     16 CAI         -6.7590    -0.6510    -0.5940 ca         1 085      -0.120000
     17 CAG         -7.8820    -1.2080    -0.0390 ca         1 085      -0.057500
     18 CAU         -7.7610    -2.1900     0.9480 ca         1 085      -0.236600
     19 CAT         -8.9710    -2.7900     1.5460 c          1 085       0.507700
     20 OAB         -8.8660    -3.6400     2.4080 o          1 085      -0.428100
     21 NAA        -10.1920    -2.3960     1.1340 nz         1 085      -0.678400
     22 NAQ         -4.2720     0.4630    -1.6990 nd         1 085      -0.646000
     23 CBC         -3.0040     0.7800    -2.0020 cd         1 085       0.284300
     24 CAX         -2.5700     1.7840    -3.0000 ca         1 085       0.392300
     25 CAF         -3.4140     2.1170    -4.0590 ca         1 085      -0.220300
     26 CAD         -2.9940     3.0580    -4.9820 ca         1 085      -0.094000
     27 CAC         -1.7430     3.6370    -4.8180 ca         1 085      -0.242300
     28 CAE         -0.9570     3.2600    -3.7440 ca         1 085       0.423200
     29 NAO         -1.3820     2.3650    -2.8760 nb         1 085      -0.685000
     30 H1          -0.5420    -0.0000     0.9380 ha         1 085       0.139000
     31 H2           4.3530    -0.1120     0.9100 h2         1 085       0.079200
     32 H3           1.9310     0.0000    -3.3470 ha         1 085       0.154000
     33 H4          -0.5290     0.0020    -3.3590 ha         1 085       0.149000
     34 H5          -2.7070    -1.5510     0.1350 hn         1 085       0.312700
     35 H6          -4.3890    -2.3570     1.1530 ha         1 085       0.171000
     36 H7          -6.4010    -3.3570     2.1440 ha         1 085       0.140000
     37 H8          -6.8530     0.1100    -1.3590 ha         1 085       0.171000
     38 H9          -8.8640    -0.8900    -0.3690 ha         1 085       0.140000
     39 H10        -10.8940    -2.9020     1.6370 hn         1 085       0.476800
     40 H11        -10.3010    -1.4150     1.3040 hn         1 085       0.476800
     41 H13         -4.3850     1.6460    -4.1580 ha         1 085       0.149000
     42 H14         -3.6280     3.3370    -5.8150 ha         1 085       0.145000
     43 H15         -1.3840     4.3750    -5.5250 ha         1 085       0.147000
     44 H16          0.0190     3.7110    -3.6120 h4         1 085       0.032100
     45 H17          3.6250     1.4910     0.4890 h2         1 085       0.079200
     46 HAA3       -10.2860    -2.5710     0.1530 hn         1 085       0.476800
@<TRIPOS>BOND
     1     5     4 1
     2     5     6 1
     3     4     3 1
     4     6     7 ar
     5     6     2 ar
     6     7     8 ar
     7     3     2 1
     8     2     1 ar
     9     8     9 ar
    10    28    27 ar
    11    28    29 ar
    12    27    26 ar
    13    29    24 ar
    14     1     9 ar
    15     9    10 1
    16    26    25 ar
    17    24    25 ar
    18    24    23 1
    19    10    23 2
    20    10    11 1
    21    23    22 1
    22    11    12 1
    23    22    12 2
    24    12    13 1
    25    13    16 ar
    26    13    14 ar
    27    16    17 ar
    28    14    15 ar
    29    17    18 ar
    30    15    18 ar
    31    18    19 1
    32    19    21 1
    33    19    20 2
    34     1    30 1
    35     4    31 1
    36     7    32 1
    37     8    33 1
    38    11    34 1
    39    14    35 1
    40    15    36 1
    41    16    37 1
    42    17    38 1
    43    21    39 1
    44    21    40 1
    45    25    41 1
    46    26    42 1
    47    27    43 1
    48    28    44 1
    49     4    45 1
    50    46    21 1
@<TRIPOS>SUBSTRUCTURE
     1 085         1 TEMP              0 ****  ****    0 ROOT
