@<TRIPOS>MOLECULE
085
   46    50     1     0     0
SMALL
bcc


@<TRIPOS>ATOM
      1 CAM          0.0000     0.0000     0.0000 ca         1 085      -0.086000
      2 CAZ          1.3810     0.0000     0.0000 ca         1 085       0.060100
      3 OAS          2.2850     0.0000     1.0240 os         1 085      -0.314900
      4 CAN          3.5320     0.4120     0.4360 c3         1 085       0.434200
      5 OAR          3.4170    -0.0010    -0.9390 os         1 085      -0.308900
      6 CAY          2.0780    -0.0010    -1.2080 ca         1 085       0.080100
      7 CAL          1.3860     0.0000    -2.4110 ca         1 085      -0.087000
      8 CAK          0.0070     0.0010    -2.4180 ca         1 085      -0.049000
      9 CAW         -0.6970     0.0010    -1.2110 ca         1 085      -0.026000
     10 CBB         -2.1730    -0.0040    -1.2160 cc         1 085      -0.263600
     11 NAP         -2.9940    -0.7830    -0.4390 na         1 085       0.286100
     12 CBA         -4.2820    -0.4630    -0.7680 cc         1 085       0.159000
     13 CAV         -5.4920    -1.0640    -0.1710 ca         1 085       0.025500
     14 CAJ         -5.3710    -2.0400     0.8220 ca         1 085      -0.104500
     15 CAH         -6.4950    -2.5980     1.3760 ca         1 085      -0.015000
     16 CAI         -6.7590    -0.6510    -0.5940 ca         1 085      -0.104500
     17 CAG         -7.8820    -1.2080    -0.0390 ca         1 085      -0.015000
     18 CAU         -7.7610    -2.1900     0.9480 ca         1 085      -0.268600
     19 CAT         -8.9710    -2.7900     1.5460 c          1 085       0.358700
     20 OAB         -8.8660    -3.6400     2.4080 o          1 085      -0.444100
     21 NAA        -10.1920    -2.3960     1.1340 nz         1 085       0.199600
     22 NAQ         -4.2720     0.4630    -1.6990 nd         1 085      -0.554000
     23 CBC         -3.0040     0.7800    -2.0020 cd         1 085       0.253300
     24 CAX         -2.5700     1.7840    -3.0000 ca         1 085       0.346300
     25 CAF         -3.4140     2.1170    -4.0590 ca         1 085      -0.193300
     26 CAD         -2.9940     3.0580    -4.9820 ca         1 085      -0.069000
     27 CAC         -1.7430     3.6370    -4.8180 ca         1 085      -0.209300
     28 CAE         -0.9570     3.2600    -3.7440 ca         1 085       0.403200
     29 NAO         -1.3820     2.3650    -2.8760 nb         1 085      -0.571000
     30 H1          -0.5420    -0.0000     0.9380 ha         1 085       0.106000
     31 H2           4.3530    -0.1120     0.9100 h2         1 085       0.020200
     32 H3           1.9310     0.0000    -3.3470 ha         1 085       0.119000
     33 H4          -0.5290     0.0020    -3.3590 ha         1 085       0.117000
     34 H5          -2.7070    -1.5510     0.1350 hn         1 085       0.131700
     35 H6          -4.3890    -2.3570     1.1530 ha         1 085       0.137000
     36 H7          -6.4010    -3.3570     2.1440 ha         1 085       0.106000
     37 H8          -6.8530     0.1100    -1.3590 ha         1 085       0.137000
     38 H9          -8.8640    -0.8900    -0.3690 ha         1 085       0.106000
     39 H10        -10.8940    -2.9020     1.6370 hn         1 085       0.245800
     40 H11        -10.3010    -1.4150     1.3040 hn         1 085       0.245800
     41 H13         -4.3850     1.6460    -4.1580 ha         1 085       0.122000
     42 H14         -3.6280     3.3370    -5.8150 ha         1 085       0.113000
     43 H15         -1.3840     4.3750    -5.5250 ha         1 085       0.119000
     44 H16          0.0190     3.7110    -3.6120 h4         1 085      -0.013900
     45 H17          3.6250     1.4910     0.4890 h2         1 085       0.020200
     46 HAA3       -10.2860    -2.5710     0.1530 hn         1 085       0.245800
@<TRIPOS>BOND
     1     1     2 ar  
     2     1     9 ar  
     3     1    30 1   
     4     2     3 1   
     5     2     6 ar  
     6     3     4 1   
     7     4     5 1   
     8     4    31 1   
     9     4    45 1   
    10     5     6 1   
    11     6     7 ar  
    12     7     8 ar  
    13     7    32 1   
    14     8     9 ar  
    15     8    33 1   
    16     9    10 1   
    17    10    11 1   
    18    10    23 2   
    19    11    12 1   
    20    11    34 1   
    21    12    13 1   
    22    12    22 2   
    23    13    14 ar  
    24    13    16 ar  
    25    14    15 ar  
    26    14    35 1   
    27    15    18 ar  
    28    15    36 1   
    29    16    17 ar  
    30    16    37 1   
    31    17    18 ar  
    32    17    38 1   
    33    18    19 1   
    34    19    20 2   
    35    19    21 1   
    36    21    39 1   
    37    21    40 1   
    38    21    46 1   
    39    22    23 1   
    40    23    24 1   
    41    24    25 ar  
    42    24    29 ar  
    43    25    26 ar  
    44    25    41 1   
    45    26    27 ar  
    46    26    42 1   
    47    27    28 ar  
    48    27    43 1   
    49    28    29 ar  
    50    28    44 1   
@<TRIPOS>SUBSTRUCTURE
     1 085         1 TEMP              0 ****  ****    0 ROOT
