@<TRIPOS>MOLECULE
molecule
   46    48     1     0     0
SMALL
bcc


@<TRIPOS>ATOM
      1 C1           0.0000     0.0000     0.0000 c3         1 087      -0.027800
      2 Cl1         10.0150    -1.5570    -9.4590 cl         1 087      -0.094000
      3 C2           1.5060     0.0000     0.0000 cc         1 087      -0.060600
      4 Cl2          5.0360    -0.0010     1.6940 cl         1 087      -0.032400
      5 C3           2.2950     0.0000     1.1020 cd         1 087      -0.057600
      6 Cl3          1.7470    -0.0020     2.7490 cl         1 087      -0.056400
      7 C4           3.6290    -0.0000     0.6760 cd         1 087       0.053400
      8 C5           3.6140     0.0000    -0.7040 cc         1 087      -0.199900
      9 N6           2.2950    -0.0040    -1.1040 na         1 087      -0.146100
     10 C8           4.7870     0.0010    -1.5820 c          1 087       0.707700
     11 O9           5.9060     0.0010    -1.1040 o          1 087      -0.580100
     12 N10          4.6250     0.0030    -2.9210 ns         1 087      -0.590900
     13 C11          5.7970     0.0040    -3.8000 c3         1 087       0.118700
     14 C12          5.4220    -0.6030    -5.1540 c3         1 087      -0.098900
     15 C13          6.6330    -0.5430    -6.0880 c3         1 087       0.169300
     16 N14          7.0540     0.8530    -6.2570 nh         1 087      -0.686300
     17 C15          7.4650     1.4420    -4.9750 c3         1 087       0.169300
     18 C16          6.2810     1.4410    -4.0080 c3         1 087      -0.098900
     19 C17          8.0700     0.9570    -7.2000 ca         1 087       0.664200
     20 C18          8.6050     2.2040    -7.5010 ca         1 087      -0.180300
     21 C19          9.6240     2.2930    -8.4500 ca         1 087      -0.142600
     22 C20         10.0620     1.1120    -9.0620 ca         1 087      -0.291300
     23 C21          9.4780    -0.0880    -8.7070 ca         1 087       0.576300
     24 N22          8.5190    -0.1340    -7.8000 nb         1 087      -0.693000
     25 C24         10.2240     3.6000    -8.8030 c          1 087       0.511700
     26 O25          9.8300     4.6140    -8.2630 o          1 087      -0.400100
     27 N26         11.2060     3.6640    -9.7240 nz         1 087      -0.679400
     28 H1          -0.3610     0.8750     0.5270 hc         1 087       0.059367
     29 H1A         -0.3610     0.0190    -1.0210 hc         1 087       0.059367
     30 H1B         -0.3610    -0.8940     0.4940 hc         1 087       0.059367
     31 HN10         3.7050    -0.0320    -3.3140 hn         1 087       0.307500
     32 H11          6.5920    -0.5810    -3.3510 h1         1 087       0.086700
     33 H12          4.6040    -0.0390    -5.5880 hc         1 087       0.069450
     34 H12A         5.1230    -1.6350    -5.0170 hc         1 087       0.069450
     35 H13          6.3640    -0.9570    -7.0520 h1         1 087       0.059700
     36 H13A         7.4460    -1.1150    -5.6580 h1         1 087       0.059700
     37 H15          8.2740     0.8570    -4.5540 h1         1 087       0.059700
     38 H15A         7.7960     2.4610    -5.1370 h1         1 087       0.059700
     39 H16          5.4760     2.0350    -4.4230 hc         1 087       0.069450
     40 H16A         6.5910     1.8580    -3.0570 hc         1 087       0.069450
     41 H18          8.2370     3.0940    -7.0050 ha         1 087       0.184000
     42 H20         10.8510     1.1390    -9.8040 ha         1 087       0.128000
     43 HN26        10.8700     3.3090   -10.5970 hn         1 087       0.481800
     44 HN2A        11.9860     3.1150    -9.4190 hn         1 087       0.481800
     45 HN6          1.9730    -0.0050    -2.0520 hn         1 087       0.301700
     46 H263        11.5180     4.6110    -9.8130 hn         1 087       0.481800
@<TRIPOS>BOND
     1     1     3 1   
     2     1    28 1   
     3     1    29 1   
     4     1    30 1   
     5     2    23 1   
     6     3     5 2   
     7     3     9 1   
     8     4     7 1   
     9     5     7 1   
    10     6     5 1   
    11     7     8 2   
    12     8     9 1   
    13     8    10 1   
    14    12    10 1   
    15    10    11 2   
    16    12    13 1   
    17    12    31 1   
    18    14    13 1   
    19    18    13 1   
    20    13    32 1   
    21    14    15 1   
    22    14    33 1   
    23    14    34 1   
    24    16    15 1   
    25    15    35 1   
    26    15    36 1   
    27    19    16 1   
    28    16    17 1   
    29    18    17 1   
    30    17    37 1   
    31    17    38 1   
    32    18    39 1   
    33    18    40 1   
    34    24    19 ar  
    35    19    20 ar  
    36    21    20 ar  
    37    20    41 1   
    38    22    21 ar  
    39    21    25 1   
    40    23    22 ar  
    41    22    42 1   
    42    23    24 ar  
    43    25    26 2   
    44    25    27 1   
    45    27    43 1   
    46    27    44 1   
    47     9    45 1   
    48    46    27 1   
@<TRIPOS>SUBSTRUCTURE
     1 087         1 TEMP              0 ****  ****    0 ROOT
