@<TRIPOS>MOLECULE
087
   47    49     1     0     0
SMALL
bcc


@<TRIPOS>ATOM
      1 C1           0.1790     0.1710     0.4530 c3         1 087      -0.076800
      2 Cl1         12.5880    -3.3160    -1.1190 cl         1 087      -0.063000
      3 C2           1.6320    -0.0090     0.2890 cc         1 087       0.050400
      4 Cl2          5.3070    -0.5720     1.5300 cl         1 087      -0.013400
      5 C3           2.5940    -0.2060     1.3420 cd         1 087      -0.068600
      6 Cl3          2.2480    -0.2750     2.9610 cl         1 087       0.042600
      7 C4           3.8640    -0.3270     0.7340 cd         1 087       0.036400
      8 C5           3.6790    -0.2060    -0.6820 cc         1 087      -0.296900
      9 N6           2.2980    -0.0150    -0.9080 na         1 087      -0.098100
     10 C8           4.5930    -0.2460    -1.7820 c          1 087       0.590700
     11 O9           4.3350    -0.1620    -2.9820 o          1 087      -0.477100
     12 N10          6.0540    -0.4100    -1.4060 ny         1 087      -0.665800
     13 C11          7.0020    -0.3250    -2.5730 c3         1 087       0.127500
     14 C12          8.4180     0.0250    -2.1050 c3         1 087      -0.135400
     15 C13          9.3320     0.1380    -3.3290 c3         1 087       0.184300
     16 N14          9.3340    -1.0090    -4.2190 nh         1 087      -0.727300
     17 C15          7.9970    -1.4630    -4.5670 c3         1 087       0.184300
     18 C16          7.0330    -1.6230    -3.3860 c3         1 087      -0.135400
     19 C17         10.2960    -2.0360    -3.9940 ca         1 087       0.643200
     20 C18         10.6940    -2.8240    -5.1230 ca         1 087      -0.182300
     21 C19         11.7260    -3.7510    -4.9590 ca         1 087      -0.122600
     22 C20         12.3360    -3.9150    -3.7110 ca         1 087      -0.244300
     23 C21         11.8660    -3.1140    -2.6460 ca         1 087       0.534300
     24 N22         10.8740    -2.2060    -2.7700 nb         1 087      -0.671000
     25 C24         12.1100    -4.5410    -6.1380 c          1 087       0.566700
     26 O25         11.4270    -4.8690    -7.0940 o          1 087      -0.375100
     27 N26         13.5560    -4.9910    -6.2080 nz         1 087      -0.758400
     28 H1          -0.0130     1.0980     1.0560 hc         1 087       0.094367
     29 H1A         -0.3590     0.2610    -0.5230 hc         1 087       0.094367
     30 H1B         -0.2410    -0.7040     1.0170 hc         1 087       0.094367
     31 HN10         6.2950     0.3260    -0.7290 hn         1 087       0.461800
     32 H11          6.6130     0.5080    -3.2380 hx         1 087       0.126700
     33 H12          8.4320     1.0120    -1.5720 hc         1 087       0.082450
     34 H12A         8.8110    -0.7580    -1.4040 hc         1 087       0.082450
     35 H13          8.9880     1.0090    -3.9620 h1         1 087       0.090450
     36 H13A        10.3780     0.3640    -2.9760 h1         1 087       0.090450
     37 H15          7.5790    -0.6900    -5.2770 h1         1 087       0.090450
     38 H15A         8.0530    -2.4450    -5.1160 h1         1 087       0.090450
     39 H16          7.3520    -2.4830    -2.7410 hc         1 087       0.082450
     40 H16A         6.0120    -1.8460    -3.7990 hc         1 087       0.082450
     41 H18         10.2050    -2.6870    -6.1030 ha         1 087       0.190000
     42 H20         13.1330    -4.6470    -3.5200 ha         1 087       0.162000
     43 HN26        13.7500    -5.4030    -7.1330 hn         1 087       0.477467
     44 HN2A        14.1800    -4.1920    -6.0550 hn         1 087       0.477467
     45 HN6          1.8970     0.1030    -1.8110 hn         1 087       0.340700
     46 H263        13.7390    -5.6970    -5.4880 hn         1 087       0.477467
     47 H102         6.1650    -1.3190    -0.9400 hn         1 087       0.461800
@<TRIPOS>BOND
     1     1     3 1   
     2     1    28 1   
     3     1    29 1   
     4     1    30 1   
     5     2    23 1   
     6     3     5 2   
     7     3     9 1   
     8     4     7 1   
     9     5     6 1   
    10     5     7 1   
    11     7     8 2   
    12     8     9 1   
    13     8    10 1   
    14     9    45 1   
    15    10    11 2   
    16    10    12 1   
    17    12    13 1   
    18    12    31 1   
    19    12    47 1   
    20    13    14 1   
    21    13    18 1   
    22    13    32 1   
    23    14    15 1   
    24    14    33 1   
    25    14    34 1   
    26    15    16 1   
    27    15    35 1   
    28    15    36 1   
    29    16    17 1   
    30    16    19 1   
    31    17    18 1   
    32    17    37 1   
    33    17    38 1   
    34    18    39 1   
    35    18    40 1   
    36    19    20 ar  
    37    19    24 ar  
    38    20    21 ar  
    39    20    41 1   
    40    21    22 ar  
    41    21    25 1   
    42    22    23 ar  
    43    22    42 1   
    44    23    24 ar  
    45    25    26 2   
    46    25    27 1   
    47    27    43 1   
    48    27    44 1   
    49    27    46 1   
@<TRIPOS>SUBSTRUCTURE
     1 087         1 TEMP              0 ****  ****    0 ROOT
