@<TRIPOS>MOLECULE
08A
   65    69     1     0     0
SMALL
bcc


@<TRIPOS>ATOM
      1 N            0.3680     0.8580     0.9540 nc         1 08A      -0.223400
      2 CA           1.6830     0.3810     0.6570 ca         1 08A      -0.004600
      3 O            6.1220     2.9060     7.7840 o          1 08A      -0.593100
      4 CB           2.8010     0.0880     1.4520 ca         1 08A       0.003700
      5 CG           3.9660    -0.3450     0.7950 ca         1 08A      -0.075300
      6 CD1          5.2040    -0.6170     1.6040 c3         1 08A       0.028900
      7 CD2          3.9660    -0.5670    -0.6000 ca         1 08A      -0.065000
      8 CE1          6.3330    -1.3160     0.8570 c3         1 08A      -0.198400
      9 CZ           5.9580    -2.7430     0.4090 c          1 08A       0.910600
     10 OH           5.9170    -2.9650    -0.8370 o          1 08A      -0.840800
     11 C11          5.7600     0.6570     2.1830 ca         1 08A      -0.039300
     12 C12          6.1780     0.6960     3.5170 ca         1 08A      -0.129000
     13 C13          6.7500     1.8550     4.0480 ca         1 08A      -0.101300
     14 C14          6.9130     2.9930     3.2470 ca         1 08A      -0.097300
     15 C15          6.4850     2.9630     1.9080 ca         1 08A      -0.078300
     16 C16          5.9190     1.7970     1.3880 ca         1 08A      -0.119000
     17 C17          6.6370     4.1570     1.0430 c3         1 08A      -0.046800
     18 C18          7.5180     4.2290     3.8080 c3         1 08A      -0.052100
     19 C19          8.2930     3.9600     5.1000 c3         1 08A       0.083000
     20 C2           1.7210     0.1880    -0.7760 ca         1 08A      -0.071200
     21 C20          7.2000     1.8210     5.4810 c3         1 08A       0.119300
     22 C22          7.2470     4.9930     7.6100 ca         1 08A      -0.122600
     23 C23          8.5190     5.3060     8.0970 ca         1 08A      -0.098000
     24 C24          8.7770     6.5860     8.5870 ca         1 08A      -0.138000
     25 C25          7.7690     7.5510     8.5910 ca         1 08A      -0.123000
     26 C26          6.4990     7.2350     8.1090 ca         1 08A      -0.138000
     27 C27          6.2330     5.9560     7.6220 ca         1 08A      -0.098000
     28 C29          0.0730     2.1700    -3.0630 c3         1 08A      -0.120100
     29 C3           2.8640    -0.3060    -1.4030 ca         1 08A      -0.155000
     30 C7           2.7200     0.1970     2.9250 c3         1 08A      -0.059800
     31 N1           0.4160     0.5330    -1.1990 na         1 08A       0.033900
     32 N2          -0.2950     0.9570    -0.1120 nd         1 08A      -0.166400
     33 N4           7.6050     3.1010     6.0360 n          1 08A      -0.443800
     34 O2           5.7380    -3.6080     1.3000 o          1 08A      -0.840800
     35 H1           4.9000    -1.3100     2.4460 hc         1 08A       0.087700
     36 H2           4.8610    -1.0260    -1.0730 ha         1 08A       0.206000
     37 H3           7.2090    -1.4030     1.5500 hc         1 08A       0.031200
     38 H4           6.6520    -0.7090    -0.0260 hc         1 08A       0.031200
     39 H5           6.0610    -0.1970     4.1510 ha         1 08A       0.142000
     40 H6           5.5910     1.7640     0.3370 ha         1 08A       0.142000
     41 H7           6.1050     4.0210     0.0700 hc         1 08A       0.036700
     42 H8           7.7190     4.3450     0.8280 hc         1 08A       0.036700
     43 H9           6.2200     5.0640     1.5500 hc         1 08A       0.036700
     44 H10          6.7050     4.9820     3.9970 hc         1 08A       0.050200
     45 H11          8.2280     4.6840     3.0670 hc         1 08A       0.050200
     46 H12          9.2610     3.4430     4.8350 h1         1 08A       0.053200
     47 H13          8.5470     4.9420     5.5860 h1         1 08A       0.053200
     48 H14          8.0950     1.1340     5.5520 h1         1 08A       0.074200
     49 H15          6.3740     1.3820     6.1150 h1         1 08A       0.074200
     50 H16          9.3110     4.5420     8.0950 ha         1 08A       0.146000
     51 H17          9.7770     6.8320     8.9730 ha         1 08A       0.132000
     52 H18          7.9760     8.5590     8.9760 ha         1 08A       0.128000
     53 H19          5.7030     7.9940     8.1160 ha         1 08A       0.132000
     54 H20          5.2270     5.6950     7.2580 ha         1 08A       0.146000
     55 H21          0.6980     0.0940    -3.2040 h1         1 08A       0.058700
     56 H22         -1.0380     0.3480    -2.6880 h1         1 08A       0.058700
     57 H23          1.1090     2.5810    -2.9910 hc         1 08A       0.043700
     58 H24         -0.2480     2.1960    -4.1330 hc         1 08A       0.043700
     59 H25         -0.6090     2.8240    -2.4690 hc         1 08A       0.043700
     60 H26          2.8900    -0.5060    -2.4820 ha         1 08A       0.135000
     61 H27          2.7810    -0.8270     3.3770 hc         1 08A       0.051700
     62 H28          3.5730     0.8030     3.3230 hc         1 08A       0.051700
     63 H29          1.7650     0.6720     3.2550 hc         1 08A       0.051700
     64 C21          6.9270     3.6100     7.1400 c          1 08A       0.660700
     65 C28          0.0160     0.7320    -2.5720 c3         1 08A       0.067300
@<TRIPOS>BOND
     1     1     2 1   
     2     1    32 2   
     3     2     4 ar  
     4     2    20 ar  
     5     3    64 2   
     6     4     5 ar  
     7     4    30 1   
     8     5     6 1   
     9     5     7 ar  
    10     6     8 1   
    11     6    11 1   
    12     6    35 1   
    13     7    29 ar  
    14     7    36 1   
    15     8     9 1   
    16     8    37 1   
    17     8    38 1   
    18     9    10 1   
    19     9    34 1   
    20    11    12 ar  
    21    11    16 ar  
    22    12    13 ar  
    23    12    39 1   
    24    13    14 ar  
    25    13    21 1   
    26    14    15 ar  
    27    14    18 1   
    28    15    16 ar  
    29    15    17 1   
    30    16    40 1   
    31    17    41 1   
    32    17    42 1   
    33    17    43 1   
    34    18    19 1   
    35    18    44 1   
    36    18    45 1   
    37    19    33 1   
    38    19    46 1   
    39    19    47 1   
    40    20    29 ar  
    41    20    31 1   
    42    21    33 1   
    43    21    48 1   
    44    21    49 1   
    45    22    23 ar  
    46    22    27 ar  
    47    22    64 1   
    48    23    24 ar  
    49    23    50 1   
    50    24    25 ar  
    51    24    51 1   
    52    25    26 ar  
    53    25    52 1   
    54    26    27 ar  
    55    26    53 1   
    56    27    54 1   
    57    28    57 1   
    58    28    58 1   
    59    28    59 1   
    60    28    65 1   
    61    29    60 1   
    62    30    61 1   
    63    30    62 1   
    64    30    63 1   
    65    31    32 1   
    66    31    65 1   
    67    33    64 1   
    68    55    65 1   
    69    56    65 1   
@<TRIPOS>SUBSTRUCTURE
     1 08A         1 TEMP              0 ****  ****    0 ROOT
