@<TRIPOS>MOLECULE
08B
   44    46     1     0     0
SMALL
bcc


@<TRIPOS>ATOM
      1 C1           0.2900    -0.8790    -0.2790 c3         1 08B      -0.073800
      2 C2           1.7220    -0.5330    -0.2300 cc         1 08B       0.049400
      3 C3           2.6220    -0.7410     0.8720 cd         1 08B      -0.133900
      4 C4           3.8890    -0.2570     0.4760 cd         1 08B      -0.051000
      5 C5           3.7610     0.2390    -0.8530 cc         1 08B      -0.292900
      6 N6           2.4200     0.0530    -1.2550 na         1 08B      -0.109100
      7 C8           4.7150     0.8400    -1.7360 c          1 08B       0.590700
      8 O9           4.5400     1.2310    -2.8900 o          1 08B      -0.474100
      9 N10          6.1050     1.0460    -1.1770 ny         1 08B      -0.665800
     10 C11          7.1620     0.3430    -1.9980 c3         1 08B       0.125500
     11 C12          8.5490     0.9080    -1.6730 c3         1 08B      -0.104400
     12 C13          9.6130     0.1540    -2.4770 c3         1 08B       0.180300
     13 N14          9.5420    -1.2800    -2.2170 nh         1 08B      -0.741300
     14 C15          8.2470    -1.8380    -2.5820 c3         1 08B       0.180300
     15 C16          7.1260    -1.1720    -1.7750 c3         1 08B      -0.104400
     16 C17         10.6830    -2.0070    -2.6940 ca         1 08B       0.639200
     17 C18         11.7930    -2.1890    -1.8120 ca         1 08B      -0.266500
     18 C19         12.8870    -2.9710    -2.2250 ca         1 08B      -0.032000
     19 C20         12.8670    -3.5270    -3.5000 ca         1 08B      -0.238300
     20 C21         11.7460    -3.2900    -4.3180 ca         1 08B       0.450200
     21 N22         10.6850    -2.5620    -3.9420 nb         1 08B      -0.695000
     22 N23         11.8130    -1.5950    -0.4480 no         1 08B       0.327200
     23 O24         12.1060    -2.3040     0.4740 o          1 08B      -0.196500
     24 O25         11.5600    -0.4290    -0.3060 o          1 08B      -0.196500
     25 Br           2.1940    -1.4930     2.4830 br         1 08B       0.021900
     26 H1          -0.2520    -0.3340     0.5380 hc         1 08B       0.088367
     27 H2           0.1680    -1.9800    -0.1060 hc         1 08B       0.088367
     28 H3          -0.1840    -0.6170    -1.2580 hc         1 08B       0.088367
     29 H4           4.7900    -0.2730     1.0880 ha         1 08B       0.168000
     30 H5           2.0640     0.3180    -2.1430 hn         1 08B       0.334700
     31 H6           6.1540     0.7150    -0.2100 hn         1 08B       0.457300
     32 H7           6.9160     0.5650    -3.0830 hx         1 08B       0.120700
     33 H8           8.6100     1.9920    -1.9520 hc         1 08B       0.075700
     34 H9           8.7760     0.8060    -0.5790 hc         1 08B       0.075700
     35 H10          9.4780     0.3870    -3.5730 h1         1 08B       0.075200
     36 H11         10.6270     0.5280    -2.1520 h1         1 08B       0.075200
     37 H12          8.0220    -1.7210    -3.6810 h1         1 08B       0.075200
     38 H13          8.2520    -2.9380    -2.3410 h1         1 08B       0.075200
     39 H14          7.2520    -1.4130    -0.6870 hc         1 08B       0.075700
     40 H15          6.1470    -1.5950    -2.1220 hc         1 08B       0.075700
     41 H16         13.7390    -3.1450    -1.5440 ha         1 08B       0.181000
     42 H17         13.7040    -4.1410    -3.8630 ha         1 08B       0.175000
     43 H18         11.6910    -3.7090    -5.3430 h4         1 08B       0.048100
     44 H102         6.3090     2.0530    -1.1920 hn         1 08B       0.457300
@<TRIPOS>BOND
     1     1     2 1   
     2     1    26 1   
     3     1    27 1   
     4     1    28 1   
     5     2     3 2   
     6     2     6 1   
     7     3     4 1   
     8     3    25 1   
     9     4     5 2   
    10     4    29 1   
    11     5     6 1   
    12     5     7 1   
    13     6    30 1   
    14     7     8 2   
    15     7     9 1   
    16     9    10 1   
    17     9    31 1   
    18     9    44 1   
    19    10    11 1   
    20    10    15 1   
    21    10    32 1   
    22    11    12 1   
    23    11    33 1   
    24    11    34 1   
    25    12    13 1   
    26    12    35 1   
    27    12    36 1   
    28    13    14 1   
    29    13    16 1   
    30    14    15 1   
    31    14    37 1   
    32    14    38 1   
    33    15    39 1   
    34    15    40 1   
    35    16    17 ar  
    36    16    21 ar  
    37    17    18 ar  
    38    17    22 1   
    39    18    19 ar  
    40    18    41 1   
    41    19    20 ar  
    42    19    42 1   
    43    20    21 ar  
    44    20    43 1   
    45    22    23 1   
    46    22    24 1   
@<TRIPOS>SUBSTRUCTURE
     1 08B         1 TEMP              0 ****  ****    0 ROOT
