@<TRIPOS>MOLECULE
molecule
   43    45     1     0     0
SMALL
bcc


@<TRIPOS>ATOM
      1 C1           0.0000     0.0000     0.0000 c3         1 08B      -0.028800
      2 C2           1.5070     0.0000     0.0000 cc         1 08B      -0.058600
      3 C3           2.2950     0.0000     1.1030 cc         1 08B      -0.110900
      4 C4           3.6280    -0.0000     0.6770 cc         1 08B      -0.082000
      5 C5           3.6130    -0.0010    -0.7020 cd         1 08B      -0.201900
      6 N6           2.2960    -0.0060    -1.1020 na         1 08B      -0.144100
      7 C8           4.7860    -0.0010    -1.5820 c          1 08B       0.705700
      8 O9           5.9050    -0.0020    -1.1040 o          1 08B      -0.597100
      9 N10          4.6260    -0.0010    -2.9190 ns         1 08B      -0.584900
     10 C11          5.7980    -0.0010    -3.7980 c3         1 08B       0.116700
     11 C12          5.4220    -0.6080    -5.1530 c3         1 08B      -0.093900
     12 C13          6.6330    -0.5500    -6.0870 c3         1 08B       0.175800
     13 N14          7.0560     0.8460    -6.2560 nh         1 08B      -0.706300
     14 C15          7.4670     1.4360    -4.9750 c3         1 08B       0.175800
     15 C16          6.2810     1.4360    -4.0070 c3         1 08B      -0.093900
     16 C17          8.0710     0.9480    -7.2000 ca         1 08B       0.675200
     17 C18          7.8440     1.6420    -8.3840 ca         1 08B      -0.290500
     18 C19          8.8630     1.7370    -9.3150 ca         1 08B      -0.020000
     19 C20         10.0790     1.1320    -9.0280 ca         1 08B      -0.276300
     20 C21         10.2360     0.4590    -7.8330 ca         1 08B       0.480200
     21 N22          9.2480     0.3900    -6.9610 nb         1 08B      -0.730000
     22 N23          6.6400     2.2170    -8.6230 no         1 08B       0.323200
     23 O24          6.4160     2.7350    -9.7030 o          1 08B      -0.206000
     24 O25          5.7820     2.2160    -7.7580 o          1 08B      -0.206000
     25 Br           1.7000     0.0020     2.8980 br         1 08B      -0.073100
     26 H1          -0.3610     0.8700     0.5350 hc         1 08B       0.055367
     27 H2          -0.3610    -0.8980     0.4860 hc         1 08B       0.055367
     28 H3          -0.3610     0.0280    -1.0210 hc         1 08B       0.055367
     29 H4           4.5060     0.0010     1.3110 ha         1 08B       0.179000
     30 H5           1.9750    -0.0070    -2.0500 hn         1 08B       0.297700
     31 H6           3.7060    -0.0150    -3.3130 hn         1 08B       0.304500
     32 H7           6.5920    -0.5860    -3.3500 h1         1 08B       0.081700
     33 H8           5.1230    -1.6400    -5.0150 hc         1 08B       0.062700
     34 H9           4.6060    -0.0440    -5.5870 hc         1 08B       0.062700
     35 H10          6.3640    -0.9640    -7.0510 h1         1 08B       0.049950
     36 H11          7.4460    -1.1230    -5.6570 h1         1 08B       0.049950
     37 H12          8.2750     0.8510    -4.5530 h1         1 08B       0.049950
     38 H13          7.7980     2.4540    -5.1380 h1         1 08B       0.049950
     39 H14          6.5920     1.8540    -3.0570 hc         1 08B       0.062700
     40 H15          5.4760     2.0300    -4.4230 hc         1 08B       0.062700
     41 H16          8.7150     2.2710   -10.2460 ha         1 08B       0.179000
     42 H17         10.8970     1.1850    -9.7370 ha         1 08B       0.156000
     43 H18         11.1840    -0.0120    -7.6040 h4         1 08B       0.036100
@<TRIPOS>BOND
     1    25     3 1
     2    24    22 1
     3     3     4 1
     4     3     2 2
     5     4     5 2
     6    23    22 1
     7    22    17 1
     8     2     1 1
     9     2     6 1
    10    18    17 ar
    11    18    19 ar
    12    17    16 ar
    13     5     6 1
    14     5     7 1
    15     9     7 1
    16     9    10 1
    17    19    20 ar
    18    11    10 1
    19    11    12 1
    20    16    13 1
    21    16    21 ar
    22    15    10 1
    23    15    14 1
    24    13    12 1
    25    13    14 1
    26     7     8 2
    27    20    21 ar
    28     1    26 1
    29     1    27 1
    30     1    28 1
    31     4    29 1
    32     6    30 1
    33     9    31 1
    34    10    32 1
    35    11    33 1
    36    11    34 1
    37    12    35 1
    38    12    36 1
    39    14    37 1
    40    14    38 1
    41    15    39 1
    42    15    40 1
    43    18    41 1
    44    19    42 1
    45    20    43 1
@<TRIPOS>SUBSTRUCTURE
     1 08B         1 TEMP              0 ****  ****    0 ROOT
