@<TRIPOS>MOLECULE
08B
   43    45     1     0     0
SMALL
bcc


@<TRIPOS>ATOM
      1 C1           0.0000     0.0000     0.0000 c3         1 08B       0.103200
      2 C2           1.5070     0.0000     0.0000 cc         1 08B      -0.282600
      3 C3           2.2950     0.0000     1.1030 cd         1 08B      -0.061900
      4 C4           3.6280    -0.0000     0.6770 cd         1 08B      -0.046000
      5 C5           3.6130    -0.0010    -0.7020 cc         1 08B      -0.415900
      6 N6           2.2960    -0.0060    -1.1020 na         1 08B       0.429900
      7 C8           4.7860    -0.0010    -1.5820 c          1 08B       0.640700
      8 O9           5.9050    -0.0020    -1.1040 o          1 08B      -0.639100
      9 N10          4.6260    -0.0010    -2.9190 ns         1 08B      -0.199900
     10 C11          5.7980    -0.0010    -3.7980 c3         1 08B       0.019700
     11 C12          5.4220    -0.6080    -5.1530 c3         1 08B      -0.041900
     12 C13          6.6330    -0.5500    -6.0870 c3         1 08B       0.167300
     13 N14          7.0560     0.8460    -6.2560 nh         1 08B      -0.503300
     14 C15          7.4670     1.4360    -4.9750 c3         1 08B       0.167300
     15 C16          6.2810     1.4360    -4.0070 c3         1 08B      -0.041900
     16 C17          8.0710     0.9480    -7.2000 ca         1 08B       0.594200
     17 C18          7.8440     1.6420    -8.3840 ca         1 08B      -0.585500
     18 C19          8.8630     1.7370    -9.3150 ca         1 08B       0.044000
     19 C20         10.0790     1.1320    -9.0280 ca         1 08B      -0.254300
     20 C21         10.2360     0.4590    -7.8330 ca         1 08B       0.488200
     21 N22          9.2480     0.3900    -6.9610 nb         1 08B      -0.626000
     22 N23          6.6400     2.2170    -8.6230 no         1 08B       1.085200
     23 O24          6.4160     2.7350    -9.7030 o          1 08B      -0.463500
     24 O25          5.7820     2.2160    -7.7580 o          1 08B      -0.463500
     25 Br           1.7000     0.0020     2.8980 br         1 08B      -0.093100
     26 H1          -0.3610     0.8700     0.5350 hc         1 08B       0.012033
     27 H2          -0.3610    -0.8980     0.4860 hc         1 08B       0.012033
     28 H3          -0.3610     0.0280    -1.0210 hc         1 08B       0.012033
     29 H4           4.5060     0.0010     1.3110 ha         1 08B       0.148000
     30 H5           1.9750    -0.0070    -2.0500 hn         1 08B       0.108700
     31 H6           3.7060    -0.0150    -3.3130 hn         1 08B       0.163500
     32 H7           6.5920    -0.5860    -3.3500 h1         1 08B       0.058700
     33 H8           5.1230    -1.6400    -5.0150 hc         1 08B       0.032450
     34 H9           4.6060    -0.0440    -5.5870 hc         1 08B       0.032450
     35 H10          6.3640    -0.9640    -7.0510 h1         1 08B       0.018200
     36 H11          7.4460    -1.1230    -5.6570 h1         1 08B       0.018200
     37 H12          8.2750     0.8510    -4.5530 h1         1 08B       0.018200
     38 H13          7.7980     2.4540    -5.1380 h1         1 08B       0.018200
     39 H14          6.5920     1.8540    -3.0570 hc         1 08B       0.032450
     40 H15          5.4760     2.0300    -4.4230 hc         1 08B       0.032450
     41 H16          8.7150     2.2710   -10.2460 ha         1 08B       0.144000
     42 H17         10.8970     1.1850    -9.7370 ha         1 08B       0.128000
     43 H18         11.1840    -0.0120    -7.6040 h4         1 08B      -0.013900
@<TRIPOS>BOND
     1     1     2 1   
     2     1    26 1   
     3     1    27 1   
     4     1    28 1   
     5     2     3 2   
     6     2     6 1   
     7     3     4 1   
     8     3    25 1   
     9     4     5 2   
    10     4    29 1   
    11     5     6 1   
    12     5     7 1   
    13     6    30 1   
    14     7     8 2   
    15     7     9 1   
    16     9    10 1   
    17     9    31 1   
    18    10    11 1   
    19    10    15 1   
    20    10    32 1   
    21    11    12 1   
    22    11    33 1   
    23    11    34 1   
    24    12    13 1   
    25    12    35 1   
    26    12    36 1   
    27    13    14 1   
    28    13    16 1   
    29    14    15 1   
    30    14    37 1   
    31    14    38 1   
    32    15    39 1   
    33    15    40 1   
    34    16    17 ar  
    35    16    21 ar  
    36    17    18 ar  
    37    17    22 1   
    38    18    19 ar  
    39    18    41 1   
    40    19    20 ar  
    41    19    42 1   
    42    20    21 ar  
    43    20    43 1   
    44    22    23 1   
    45    22    24 1   
@<TRIPOS>SUBSTRUCTURE
     1 08B         1 TEMP              0 ****  ****    0 ROOT
