@<TRIPOS>MOLECULE
08C
   31    33     1     0     0
SMALL
bcc


@<TRIPOS>ATOM
      1 O1           0.0890    -0.6870     0.0920 o          1 08C      -0.625500
      2 C13          1.2960    -0.3860     0.0460 c          1 08C       0.708100
      3 N1           2.0080    -0.2570     1.2490 ns         1 08C      -0.494400
      4 C6           3.3690     0.0810     1.2490 cc         1 08C       0.551500
      5 C3           4.0180     0.1880     2.5830 ca         1 08C      -0.189900
      6 C4           5.2680    -0.4020     2.7940 ca         1 08C      -0.059500
      7 C5           5.8870    -0.3090     4.0400 ca         1 08C      -0.187500
      8 C            5.2490     0.3870     5.0730 ca         1 08C       0.147100
      9 O            5.7610     0.5420     6.3440 os         1 08C      -0.322900
     10 C1           3.9950     0.9950     4.8640 ca         1 08C      -0.187500
     11 C2           3.3890     0.8910     3.6200 ca         1 08C      -0.059500
     12 N            4.0830     0.2990     0.1560 nd         1 08C      -0.620100
     13 C7           3.4430     0.1870    -1.0840 ca         1 08C       0.183400
     14 C8           2.0660    -0.1480    -1.1880 ca         1 08C      -0.190600
     15 C12          4.1720     0.4130    -2.2790 ca         1 08C      -0.124000
     16 C11          3.5390     0.3050    -3.5060 ca         1 08C      -0.095000
     17 C10          2.1800    -0.0260    -3.5940 ca         1 08C      -0.154000
     18 C9           1.4460    -0.2520    -2.4400 ca         1 08C      -0.059000
     19 CAA          7.0400    -0.0360     6.5840 c3         1 08C       0.111700
     20 H1           1.5400    -0.4220     2.1120 hn         1 08C       0.338500
     21 H4           5.7710    -0.9410     1.9760 ha         1 08C       0.147500
     22 H2           2.4170     1.3830     3.4540 ha         1 08C       0.147500
     23 H5           6.8680    -0.7800     4.1930 ha         1 08C       0.150500
     24 HA           3.5170     1.5450     5.6870 ha         1 08C       0.150500
     25 HAA1         7.8100     0.4170     5.9130 h1         1 08C       0.048367
     26 HAA2         7.2440     0.2250     7.6540 h1         1 08C       0.048367
     27 HAA3         7.0030    -1.1440     6.4490 h1         1 08C       0.048367
     28 H12          5.2400     0.6760    -2.2230 ha         1 08C       0.152000
     29 H9           0.3760    -0.5140    -2.4840 ha         1 08C       0.158000
     30 H11          4.1130     0.4830    -4.4300 ha         1 08C       0.136000
     31 H10          1.6990    -0.1060    -4.5800 ha         1 08C       0.139000
@<TRIPOS>BOND
     1     1     2 2   
     2     2     3 1   
     3     2    14 1   
     4     3     4 1   
     5     3    20 1   
     6     4     5 1   
     7     4    12 2   
     8     5     6 ar  
     9     5    11 ar  
    10     6     7 ar  
    11     6    21 1   
    12     7     8 ar  
    13     7    23 1   
    14     8     9 1   
    15     8    10 ar  
    16     9    19 1   
    17    10    11 ar  
    18    10    24 1   
    19    11    22 1   
    20    12    13 1   
    21    13    14 ar  
    22    13    15 ar  
    23    14    18 ar  
    24    15    16 ar  
    25    15    28 1   
    26    16    17 ar  
    27    16    30 1   
    28    17    18 ar  
    29    17    31 1   
    30    18    29 1   
    31    19    25 1   
    32    19    26 1   
    33    19    27 1   
@<TRIPOS>SUBSTRUCTURE
     1 08C         1 TEMP              0 ****  ****    0 ROOT
