@<TRIPOS>MOLECULE
molecule
   31    33     1     0     0
SMALL
bcc


@<TRIPOS>ATOM
      1 O1           0.0000     0.0000     0.0000 o          1 08C      -0.626500
      2 C13          1.2170     0.0000     0.0000 c          1 08C       0.710100
      3 N1           1.9190     0.0000     1.1570 ns         1 08C      -0.473400
      4 C6           3.2880    -0.0000     1.1370 cc         1 08C       0.565500
      5 C3           4.0110     0.0000     2.4240 ca         1 08C      -0.193900
      6 C4           5.4080     0.0000     2.4440 ca         1 08C      -0.050000
      7 C5           6.0780     0.0000     3.6460 ca         1 08C      -0.198000
      8 C            5.3670     0.0010     4.8410 ca         1 08C       0.166100
      9 O            6.0320     0.0020     6.0240 os         1 08C      -0.321900
     10 C1           3.9780     0.0010     4.8260 ca         1 08C      -0.198000
     11 C2           3.2990     0.0060     3.6260 ca         1 08C      -0.050000
     12 N            3.9860    -0.0010     0.0290 nd         1 08C      -0.655100
     13 C7           3.3920    -0.0010    -1.1810 ca         1 08C       0.203400
     14 C8           1.9800    -0.0070    -1.2570 ca         1 08C      -0.211600
     15 C12          4.1410    -0.0020    -2.3610 ca         1 08C      -0.125000
     16 C11          3.4970    -0.0030    -3.5780 ca         1 08C      -0.091000
     17 C10          2.1100    -0.0030    -3.6480 ca         1 08C      -0.158000
     18 C9           1.3490    -0.0140    -2.4990 ca         1 08C      -0.050000
     19 CAA          5.2390     0.0030     7.2130 c3         1 08C       0.126700
     20 H1           1.4350     0.0000     2.0330 hn         1 08C       0.337500
     21 H4           5.9630    -0.0010     1.5130 ha         1 08C       0.147000
     22 H2           2.2160     0.0060     3.6160 ha         1 08C       0.147000
     23 H5           7.1610     0.0000     3.6610 ha         1 08C       0.147000
     24 HA           3.4270     0.0040     5.7590 ha         1 08C       0.147000
     25 HAA1         4.6140     0.8880     7.2300 h1         1 08C       0.044700
     26 HAA2         5.8880     0.0030     8.0800 h1         1 08C       0.044700
     27 HAA3         4.6130    -0.8810     7.2310 h1         1 08C       0.044700
     28 H12          5.2230    -0.0020    -2.3190 ha         1 08C       0.148000
     29 H9           0.2680    -0.0140    -2.5610 ha         1 08C       0.154000
     30 H11          4.0790     0.0060    -4.4910 ha         1 08C       0.134000
     31 H10          1.6210    -0.0040    -4.6150 ha         1 08C       0.135000
@<TRIPOS>BOND
     1     1     2 2   
     2     2     3 1   
     3     2    14 1   
     4     3     4 1   
     5     4     5 1   
     6     4    12 2   
     7     5     6 ar  
     8     5    11 ar  
     9     6     7 ar  
    10     7     8 ar  
    11     8     9 1   
    12     8    10 ar  
    13     9    19 1   
    14    10    11 ar  
    15    12    13 1   
    16    13    14 ar  
    17    13    15 ar  
    18    14    18 ar  
    19    15    16 ar  
    20    16    17 ar  
    21    17    18 ar  
    22     3    20 1   
    23     6    21 1   
    24    11    22 1   
    25     7    23 1   
    26    10    24 1   
    27    19    25 1   
    28    19    26 1   
    29    19    27 1   
    30    15    28 1   
    31    18    29 1   
    32    16    30 1   
    33    17    31 1   
@<TRIPOS>SUBSTRUCTURE
     1 08C         1 TEMP              0 ****  ****    0 ROOT
