@<TRIPOS>MOLECULE
08E
   42    45     1     0     0
SMALL
bcc


@<TRIPOS>ATOM
      1 C10         -0.5060    -0.5050    -0.0110 ca         1 08E      -0.138000
      2 C9           0.8330    -0.8290    -0.1720 ca         1 08E      -0.136000
      3 C21         -3.9190     1.8390    -0.9070 ca         1 08E      -0.294300
      4 C2           1.2060    -0.8230     2.2490 ca         1 08E      -0.070000
      5 C25         -3.6800     2.6610     1.3440 ca         1 08E      -0.265300
      6 C22         -4.2090     3.1530    -1.2980 ca         1 08E       0.413200
      7 C4          -0.1330    -0.4880     2.4450 ca         1 08E      -0.043800
      8 C8          -0.9500    -0.2160     3.6130 cc         1 08E      -0.132200
      9 C20         -3.6600     1.5970     0.4490 ca         1 08E      -0.036300
     10 C5          -0.9960    -0.3320     1.2900 ca         1 08E      -0.055200
     11 C3           1.6680    -0.9840     0.9470 ca         1 08E      -0.015600
     12 C7          -2.2470     0.0810     3.1520 cd         1 08E      -0.031300
     13 C24         -3.9660     3.9750     0.8550 ca         1 08E       0.616200
     14 C18         -0.5790     0.7810     7.2220 cd         1 08E      -0.217000
     15 C17         -0.9770     0.7710     5.8520 cd         1 08E      -0.067000
     16 C19          0.2660    -0.1910     7.6860 cc         1 08E      -0.038400
     17 C1          -0.5250    -0.1940     4.9890 cc         1 08E      -0.078200
     18 C15          0.3870    -1.2380     5.4880 c          1 08E       0.685700
     19 C11         -3.5190     0.4530     3.9170 c          1 08E       0.924800
     20 N23         -4.2500     4.2090    -0.4680 nb         1 08E      -0.739000
     21 N6          -2.2780    -0.0090     1.7520 na         1 08E      -0.058400
     22 N16          0.7520    -1.1680     6.8490 ns         1 08E      -0.450100
     23 N27         -3.8900     5.0580     1.7450 nv         1 08E      -0.926500
     24 O28          0.8850    -2.1860     4.8440 o          1 08E      -0.665500
     25 O13         -4.4630    -0.3760     3.9100 o          1 08E      -0.805800
     26 O14         -3.5520     1.5960     4.4530 o          1 08E      -0.805800
     27 Cl2          3.3130    -1.3860     0.6860 cl         1 08E      -0.150400
     28 H1          -1.1630    -0.3820    -0.8830 ha         1 08E       0.125000
     29 H2           1.2420    -0.9660    -1.1830 ha         1 08E       0.125000
     30 H4           1.8650    -0.9800     3.1170 ha         1 08E       0.158000
     31 H6          -4.4320     3.3870    -2.3540 h4         1 08E       0.002100
     32 H7          -0.9640     1.5600     7.8910 ha         1 08E       0.140000
     33 H8          -1.6910     1.5420     5.4960 ha         1 08E       0.200000
     34 H9           0.5980    -0.2400     8.7370 h4         1 08E       0.129000
     35 H13         -4.0140     4.7920     2.6980 hn         1 08E       0.401300
     36 H14         -4.3960     5.8720     1.4800 hn         1 08E       0.401300
     37 H10          1.3350    -1.8860     7.2140 hn         1 08E       0.314500
     38 C12         -3.4400     0.1900     0.9370 c3         1 08E       0.075600
     39 H3          -3.9040     1.0270    -1.6430 ha         1 08E       0.131000
     40 H11         -4.3430    -0.1060     1.5590 h1         1 08E       0.084700
     41 H12         -3.3670    -0.5020     0.0480 h1         1 08E       0.084700
     42 H5          -3.4910     2.4900     2.4220 ha         1 08E       0.205000
@<TRIPOS>BOND
     1     1     2 ar  
     2     1    10 ar  
     3     1    28 1   
     4     2    11 ar  
     5     2    29 1   
     6     3     6 ar  
     7     3     9 ar  
     8     3    39 1   
     9     4     7 ar  
    10     4    11 ar  
    11     4    30 1   
    12     5     9 ar  
    13     5    13 ar  
    14     5    42 1   
    15     6    20 ar  
    16     6    31 1   
    17     7     8 1   
    18     7    10 ar  
    19     8    12 2   
    20     8    17 1   
    21     9    38 1   
    22    10    21 1   
    23    11    27 1   
    24    12    19 1   
    25    12    21 1   
    26    13    20 ar  
    27    13    23 1   
    28    14    15 1   
    29    14    16 2   
    30    14    32 1   
    31    15    17 2   
    32    15    33 1   
    33    16    22 1   
    34    16    34 1   
    35    17    18 1   
    36    18    22 1   
    37    18    24 2   
    38    19    25 1   
    39    19    26 1   
    40    21    38 1   
    41    22    37 1   
    42    23    35 1   
    43    23    36 1   
    44    38    40 1   
    45    38    41 1   
@<TRIPOS>SUBSTRUCTURE
     1 08E         1 TEMP              0 ****  ****    0 ROOT
