@<TRIPOS>MOLECULE
08E
   42    45     1     0     0
SMALL
bcc


@<TRIPOS>ATOM
      1 C10          0.0000     0.0000     0.0000 ca         1 08E      -0.096000
      2 C9           1.3760     0.0000     0.0000 ca         1 08E      -0.117000
      3 C21         -2.8640     2.0870    -0.8670 ca         1 08E      -0.231300
      4 C2           1.4170    -0.0020     2.4000 ca         1 08E      -0.043000
      5 C25         -4.4700     2.0900     0.8930 ca         1 08E      -0.195300
      6 C22         -3.2310     3.3850    -1.1600 ca         1 08E       0.379200
      7 C4           0.0210     0.0100     2.4160 ca         1 08E      -0.077800
      8 C8          -0.9770     0.0120     3.4940 cc         1 08E      -0.087200
      9 C20         -3.4930     1.4220     0.1760 ca         1 08E      -0.072300
     10 C5          -0.6970     0.0050     1.2060 ca         1 08E      -0.225200
     11 C3           2.0850     0.0000     1.1950 ca         1 08E      -0.066600
     12 C7          -2.2190     0.0110     2.8780 cd         1 08E      -0.209300
     13 C24         -4.7940     3.3960     0.5390 ca         1 08E       0.471200
     14 C18         -0.3190     1.1430     7.0210 cd         1 08E      -0.187000
     15 C17         -0.5710     1.1920     5.6480 cd         1 08E      -0.037000
     16 C19         -0.2070    -0.0530     7.6500 cc         1 08E      -0.185400
     17 C1          -0.7100     0.0000     4.9440 cc         1 08E      -0.035200
     18 C15         -0.5900    -1.2260     5.6470 c          1 08E       0.586700
     19 C11         -3.5090     0.0130     3.5680 c          1 08E       1.005800
     20 N23         -4.1700     3.9960    -0.4630 nb         1 08E      -0.613000
     21 N6          -2.0400     0.0060     1.5070 na         1 08E       0.453600
     22 N16         -0.3410    -1.2200     6.9700 ns         1 08E       0.082900
     23 N27         -5.7810     4.0750     1.2420 nv         1 08E      -0.651500
     24 O28         -0.7080    -2.2850     5.0530 o          1 08E      -0.703500
     25 O13         -3.5490     0.0180     4.7830 o          1 08E      -0.871300
     26 O14         -4.6540     0.0100     2.8540 o          1 08E      -0.871300
     27 Cl2          3.8210    -0.0000     1.1690 cl         1 08E      -0.088400
     28 H1          -0.5420    -0.0000    -0.9380 ha         1 08E       0.096000
     29 H2           1.9130     0.0010    -0.9410 ha         1 08E       0.099000
     30 H4           1.9720    -0.0020     3.3300 ha         1 08E       0.104000
     31 H6          -2.7420     3.9080    -1.9730 h4         1 08E      -0.035900
     32 H7          -0.2080     2.0630     7.5830 ha         1 08E       0.104000
     33 H8          -0.4770     2.1290     5.1130 ha         1 08E       0.106000
     34 H9          -0.0090    -0.0770     8.7150 h4         1 08E       0.106000
     35 H13         -5.5340     4.6470     2.0250 hn         1 08E       0.267300
     36 H14         -6.7350     4.0170     0.9470 hn         1 08E       0.267300
     37 H10         -0.2560    -2.0880     7.4600 hn         1 08E       0.152500
     38 C12         -3.1210     0.0020     0.5200 c3         1 08E      -0.022400
     39 H3          -2.0930     1.5920    -1.4460 ha         1 08E       0.107000
     40 H11         -3.9840    -0.5080     0.9320 h1         1 08E       0.063200
     41 H12         -2.7910    -0.5120    -0.3750 h1         1 08E       0.063200
     42 H5          -4.9810     1.6000     1.7130 ha         1 08E       0.208000
@<TRIPOS>BOND
     1     1     2 ar  
     2     1    10 ar  
     3     1    28 1   
     4     2    11 ar  
     5     2    29 1   
     6     3     6 ar  
     7     3     9 ar  
     8     3    39 1   
     9     4     7 ar  
    10     4    11 ar  
    11     4    30 1   
    12     5     9 ar  
    13     5    13 ar  
    14     5    42 1   
    15     6    20 ar  
    16     6    31 1   
    17     7     8 1   
    18     7    10 ar  
    19     8    12 2   
    20     8    17 1   
    21     9    38 1   
    22    10    21 1   
    23    11    27 1   
    24    12    19 1   
    25    12    21 1   
    26    13    20 ar  
    27    13    23 1   
    28    14    15 1   
    29    14    16 2   
    30    14    32 1   
    31    15    17 2   
    32    15    33 1   
    33    16    22 1   
    34    16    34 1   
    35    17    18 1   
    36    18    22 1   
    37    18    24 2   
    38    19    25 1   
    39    19    26 1   
    40    21    38 1   
    41    22    37 1   
    42    23    35 1   
    43    23    36 1   
    44    38    40 1   
    45    38    41 1   
@<TRIPOS>SUBSTRUCTURE
     1 08E         1 TEMP              0 ****  ****    0 ROOT
