@<TRIPOS>MOLECULE
08F
   65    69     1     0     0
SMALL
bcc


@<TRIPOS>ATOM
      1 S1           0.0000     0.0000     0.0000 s6         1 08F       0.950900
      2 O1           1.4210     0.0000     0.0000 o          1 08F      -0.581800
      3 O2          -0.7320     0.0000     1.2180 o          1 08F      -0.581800
      4 O3          -5.8690     1.8260    -3.5690 o          1 08F      -0.573800
      5 O4          -3.7260     1.0290    -4.5800 o          1 08F      -0.573800
      6 C1          -2.3790     6.4280    -3.2430 cc         1 08F      -0.158200
      7 C2          -2.1830     8.8040    -5.5490 ca         1 08F      -0.030000
      8 C3          -2.1590     9.5980    -6.6730 ca         1 08F      -0.061600
      9 C4          -2.4550     7.4400    -5.6710 ca         1 08F      -0.082800
     10 C5          -2.7010     6.8830    -6.9390 ca         1 08F      -0.198200
     11 N1          -2.9320     5.5370    -6.7760 na         1 08F       0.437600
     12 C6          -2.8500     5.2000    -5.4370 cd         1 08F      -0.305300
     13 C7          -2.5550     6.3390    -4.7050 cc         1 08F      -0.001200
     14 C8          -2.4080     9.0510    -7.9250 ca         1 08F      -0.075000
     15 C9          -2.6710     7.7060    -8.0640 ca         1 08F      -0.098000
     16 C10         -3.0400     3.8580    -4.8840 c          1 08F       0.705300
     17 O5          -2.0810     3.1250    -4.7240 o          1 08F      -0.606100
     18 C12         -3.4870     6.6890    -2.3960 c          1 08F       0.576700
     19 N2          -3.3100     6.7610    -1.0640 ns         1 08F       0.095900
     20 C13         -2.0830     6.5880    -0.5120 cc         1 08F      -0.146400
     21 C14         -0.9960     6.3360    -1.2820 cd         1 08F      -0.207000
     22 C15         -1.1250     6.2510    -2.6700 cd         1 08F       0.005000
     23 O6          -4.5980     6.8490    -2.8750 o          1 08F      -0.705500
     24 N3          -4.2750     3.4340    -4.5520 ns         1 08F      -0.292300
     25 C16         -3.6960     2.0580    -2.2390 ca         1 08F      -0.156500
     26 C17         -1.9430     3.9540    -8.3250 ca         1 08F      -0.061300
     27 C18         -1.1250     4.5880    -9.2510 ca         1 08F      -0.282300
     28 C19          0.0420     3.9720    -9.6560 ca         1 08F       0.458200
     29 N4           0.3870     2.7920    -9.1750 nb         1 08F      -0.649000
     30 C20         -0.3670     2.1560    -8.2920 ca         1 08F       0.514200
     31 C21         -1.5530     2.7200    -7.8350 ca         1 08F      -0.273300
     32 N5           0.0350     0.9140    -7.8120 nv         1 08F      -0.529500
     33 Cl1         -1.8150    11.2940    -6.5260 cl         1 08F      -0.034400
     34 C22         -4.4170     2.4770    -1.1370 ca         1 08F       0.002000
     35 C23         -3.8100     2.5530     0.1030 ca         1 08F      -0.134000
     36 C24         -2.4800     2.2080     0.2430 ca         1 08F      -0.029000
     37 C25         -1.7520     1.7860    -0.8610 ca         1 08F       0.011600
     38 C26         -2.3680     1.7070    -2.1040 ca         1 08F      -0.005000
     39 N6          -0.4080     1.4330    -0.7230 nu         1 08F      -0.426500
     40 C27         -0.6370    -1.2720    -1.1260 c3         1 08F       0.011700
     41 H2          -1.9890     9.2350    -4.5740 ha         1 08F       0.114000
     42 H3          -2.3860     9.6860    -8.8020 ha         1 08F       0.113000
     43 H4          -2.8640     7.2900    -9.0450 ha         1 08F       0.106000
     44 H5          -3.9030     3.8320    -7.5030 h1         1 08F       0.038700
     45 H6          -3.6820     5.1280    -8.6860 h1         1 08F       0.038700
     46 H7          -1.9700     6.6510     0.5640 h4         1 08F       0.125000
     47 H8          -0.0260     6.2000    -0.8190 ha         1 08F       0.125000
     48 H9          -0.2600     6.0490    -3.2910 ha         1 08F       0.119000
     49 H10         -5.0720     4.0010    -4.7630 hn         1 08F       0.248500
     50 H11         -1.4000     5.5560    -9.6510 ha         1 08F       0.117000
     51 H12          0.6830     4.4630   -10.3770 h4         1 08F      -0.023900
     52 H13         -2.1680     2.1970    -7.1120 ha         1 08F       0.138000
     53 H14         -0.6070     0.3470    -7.2950 hn         1 08F       0.273300
     54 H15          0.9780     0.6070    -7.9470 hn         1 08F       0.273300
     55 H16         -5.4610     2.7480    -1.2450 ha         1 08F       0.125000
     56 H17         -4.3780     2.8820     0.9650 ha         1 08F       0.112000
     57 H18         -2.0050     2.2690     1.2140 ha         1 08F       0.131000
     58 H19         -1.8030     1.3790    -2.9690 ha         1 08F       0.143000
     59 H20          0.3010     1.9960    -1.1480 hn         1 08F       0.352800
     60 H21         -0.3720    -1.0180    -2.1450 h1         1 08F       0.065367
     61 H22         -0.2040    -2.2310    -0.8680 h1         1 08F       0.065367
     62 H23         -1.7150    -1.3260    -1.0360 h1         1 08F       0.065367
     63 H1          -4.0950     6.9460    -0.4720 hn         1 08F       0.169500
     64 S2          -4.4760     1.9640    -3.8170 sy         1 08F       1.044900
     65 C11         -3.2240     4.5970    -7.8610 c3         1 08F       0.012600
@<TRIPOS>BOND
     1     1     2 2   
     2     1     3 2   
     3     1    39 1   
     4     1    40 1   
     5     4    64 2   
     6     5    64 2   
     7     6    13 1   
     8     6    18 1   
     9     6    22 2   
    10     7     8 ar  
    11     7     9 ar  
    12     7    41 1   
    13     8    14 ar  
    14     8    33 1   
    15     9    10 ar  
    16     9    13 1   
    17    10    11 1   
    18    10    15 ar  
    19    11    12 1   
    20    11    65 1   
    21    12    13 2   
    22    12    16 1   
    23    14    15 ar  
    24    14    42 1   
    25    15    43 1   
    26    16    17 2   
    27    16    24 1   
    28    18    19 1   
    29    18    23 2   
    30    19    20 1   
    31    19    63 1   
    32    20    21 2   
    33    20    46 1   
    34    21    22 1   
    35    21    47 1   
    36    22    48 1   
    37    24    49 1   
    38    24    64 1   
    39    25    34 ar  
    40    25    38 ar  
    41    25    64 1   
    42    26    27 ar  
    43    26    31 ar  
    44    26    65 1   
    45    27    28 ar  
    46    27    50 1   
    47    28    29 ar  
    48    28    51 1   
    49    29    30 ar  
    50    30    31 ar  
    51    30    32 1   
    52    31    52 1   
    53    32    53 1   
    54    32    54 1   
    55    34    35 ar  
    56    34    55 1   
    57    35    36 ar  
    58    35    56 1   
    59    36    37 ar  
    60    36    57 1   
    61    37    38 ar  
    62    37    39 1   
    63    38    58 1   
    64    39    59 1   
    65    40    60 1   
    66    40    61 1   
    67    40    62 1   
    68    44    65 1   
    69    45    65 1   
@<TRIPOS>SUBSTRUCTURE
     1 08F         1 TEMP              0 ****  ****    0 ROOT
