@<TRIPOS>MOLECULE
08F
   66    70     1     0     0
SMALL
bcc


@<TRIPOS>ATOM
      1 S1           1.5110    -2.5540    -0.5550 s6         1 08F       1.473900
      2 O1           1.4240    -3.5450    -1.5700 o          1 08F      -0.656800
      3 O2           0.7400    -2.7570     0.5940 o          1 08F      -0.656800
      4 O3           1.5120    -2.2560    -7.2510 o          1 08F      -0.548800
      5 O4           3.2860    -2.7220    -5.5870 o          1 08F      -0.548800
      6 C1           3.6360    -6.4770    -7.5690 cc         1 08F      -0.161200
      7 C2           5.0800    -8.4750    -5.4330 ca         1 08F      -0.071000
      8 C3           5.4680    -9.2460    -4.3480 ca         1 08F      -0.003600
      9 C4           3.9250    -7.6920    -5.3200 ca         1 08F      -0.102800
     10 C5           3.1880    -7.6810    -4.0790 ca         1 08F      -0.013200
     11 N1           2.1180    -6.7880    -4.1980 na         1 08F      -0.051400
     12 C6           2.1490    -6.2640    -5.5050 cd         1 08F      -0.158300
     13 C7           3.2420    -6.7890    -6.2200 cc         1 08F       0.037800
     14 C8           4.7320    -9.2500    -3.1390 ca         1 08F      -0.078000
     15 C9           3.6000    -8.4740    -2.9880 ca         1 08F      -0.139000
     16 C10          1.1550    -5.3260    -6.0390 c          1 08F       0.627300
     17 O5           0.4470    -5.4910    -7.0250 o          1 08F      -0.428100
     18 C12          3.4370    -5.1120    -8.0590 c          1 08F       0.746700
     19 N2           3.8920    -4.8000    -9.3400 ns         1 08F      -0.392100
     20 C13          4.4700    -5.7540   -10.1430 cc         1 08F       0.025600
     21 C14          4.6300    -7.0510    -9.7100 cd         1 08F      -0.228000
     22 C15          4.2040    -7.4110    -8.4050 cd         1 08F       0.006000
     23 O6           2.8610    -4.1920    -7.4090 o          1 08F      -0.818500
     24 N3           1.0100    -4.0360    -5.3110 ny         1 08F      -0.578700
     25 C16          1.2390    -1.5000    -4.9070 ca         1 08F      -0.463500
     26 C17         -0.2700    -6.3830    -3.6030 ca         1 08F      -0.059300
     27 C18         -0.9700    -5.2140    -3.2760 ca         1 08F      -0.360300
     28 C19         -2.3320    -5.1490    -3.6200 ca         1 08F       0.451200
     29 N4          -3.0030    -6.1110    -4.2620 nb         1 08F      -0.716000
     30 C20         -2.3100    -7.2550    -4.6020 ca         1 08F       0.682200
     31 C21         -0.9230    -7.4150    -4.2630 ca         1 08F      -0.302300
     32 N5          -2.9520    -8.2370    -5.3300 nv         1 08F      -0.946500
     33 C22          0.3090    -0.5300    -5.3010 ca         1 08F      -0.008000
     34 C23         -0.2860     0.2990    -4.3500 ca         1 08F      -0.121000
     35 C24         -0.0110     0.1410    -2.9970 ca         1 08F      -0.067000
     36 C25          0.9050    -0.8530    -2.5680 ca         1 08F       0.155600
     37 C26          1.5660    -1.6140    -3.5480 ca         1 08F      -0.077000
     38 N6           1.1280    -1.0930    -1.2060 nu         1 08F      -0.775500
     39 C27          3.1290    -2.3650    -0.1270 c3         1 08F      -0.385300
     40 C11          1.1580    -6.5210    -3.1590 c3         1 08F       0.053600
     41 S2           1.9890    -2.5060    -5.9870 sy         1 08F       1.514200
     42 Cl1          6.8610   -10.2100    -4.4570 cl         1 08F      -0.065400
     43 H2           5.6700    -8.4650    -6.3630 ha         1 08F       0.155000
     44 H3           5.0750    -9.8830    -2.3040 ha         1 08F       0.162000
     45 H4           3.0400    -8.4770    -2.0420 ha         1 08F       0.150000
     46 H5           1.2070    -7.3760    -2.4180 h1         1 08F       0.095200
     47 H6           1.4770    -5.5800    -2.6100 h1         1 08F       0.095200
     48 H7           4.7930    -5.4180   -11.1470 h4         1 08F       0.178000
     49 H8           5.0850    -7.8040   -10.3690 ha         1 08F       0.174000
     50 H9           4.3310    -8.4560    -8.0730 ha         1 08F       0.163000
     51 H10          1.2780    -4.1730    -4.3330 hn         1 08F       0.458800
     52 H11         -0.4940    -4.4100    -2.6960 ha         1 08F       0.157000
     53 H12         -2.9380    -4.2620    -3.3520 h4         1 08F       0.029100
     54 H13         -0.3930    -8.3420    -4.5210 ha         1 08F       0.156000
     55 H14         -2.5310    -9.1330    -5.3570 hn         1 08F       0.439300
     56 H15         -3.9360    -8.1860    -5.4510 hn         1 08F       0.439300
     57 H16          0.0480    -0.4200    -6.3700 ha         1 08F       0.175000
     58 H17         -0.9940     1.0810    -4.6740 ha         1 08F       0.170000
     59 H18         -0.5120     0.7910    -2.2590 ha         1 08F       0.163000
     60 H19          2.3580    -2.3330    -3.2590 ha         1 08F       0.163000
     61 H20          0.8980    -0.3200    -0.6200 hn         1 08F       0.467800
     62 H21          3.3250    -1.5110     0.5710 h1         1 08F       0.134700
     63 H22          3.8200    -2.2200    -0.9950 h1         1 08F       0.134700
     64 H23          3.5060    -3.2760     0.4120 h1         1 08F       0.134700
     65 H1           3.7600    -3.8680    -9.6780 hn         1 08F       0.355500
     66 H32          0.0170    -3.7910    -5.3150 hn         1 08F       0.458800
@<TRIPOS>BOND
     1     1     2 2   
     2     1     3 2   
     3     1    38 1   
     4     1    39 1   
     5     4    41 2   
     6     5    41 2   
     7     6    13 1   
     8     6    18 1   
     9     6    22 2   
    10     7     8 ar  
    11     7     9 ar  
    12     7    43 1   
    13     8    14 ar  
    14     8    42 1   
    15     9    10 ar  
    16     9    13 1   
    17    10    11 1   
    18    10    15 ar  
    19    11    12 1   
    20    11    40 1   
    21    12    13 2   
    22    12    16 1   
    23    14    15 ar  
    24    14    44 1   
    25    15    45 1   
    26    16    17 2   
    27    16    24 1   
    28    18    19 1   
    29    18    23 2   
    30    19    20 1   
    31    19    65 1   
    32    20    21 2   
    33    20    48 1   
    34    21    22 1   
    35    21    49 1   
    36    22    50 1   
    37    24    41 1   
    38    24    51 1   
    39    24    66 1   
    40    25    33 ar  
    41    25    37 ar  
    42    25    41 1   
    43    26    27 ar  
    44    26    31 ar  
    45    26    40 1   
    46    27    28 ar  
    47    27    52 1   
    48    28    29 ar  
    49    28    53 1   
    50    29    30 ar  
    51    30    31 ar  
    52    30    32 1   
    53    31    54 1   
    54    32    55 1   
    55    32    56 1   
    56    33    34 ar  
    57    33    57 1   
    58    34    35 ar  
    59    34    58 1   
    60    35    36 ar  
    61    35    59 1   
    62    36    37 ar  
    63    36    38 1   
    64    37    60 1   
    65    38    61 1   
    66    39    62 1   
    67    39    63 1   
    68    39    64 1   
    69    40    46 1   
    70    40    47 1   
@<TRIPOS>SUBSTRUCTURE
     1 08F         1 TEMP              0 ****  ****    0 ROOT
