@<TRIPOS>MOLECULE
08H
   35    38     1     0     0
SMALL
bcc


@<TRIPOS>ATOM
      1 CAS         -0.1290    -0.0950    -0.0310 ca         1 08H      -0.176900
      2 CAJ          1.2670    -0.0430    -0.1410 ca         1 08H      -0.082000
      3 CAP          2.0730     0.0100     0.9940 ca         1 08H       0.006400
      4 ClAB         3.7600     0.0740     0.8330 cl         1 08H      -0.072400
      5 CAH          1.4940     0.0140     2.2670 ca         1 08H      -0.098000
      6 CAI          0.1130    -0.0300     2.3960 ca         1 08H      -0.140000
      7 CAU         -0.7220    -0.0860     1.2550 ca         1 08H       0.032800
      8 NAV         -2.1180    -0.1110     1.4190 na         1 08H      -0.271800
      9 CAR         -2.8840    -0.6890     2.4620 cc         1 08H       0.382800
     10 CAA         -2.3630    -1.5660     3.5340 c3         1 08H      -0.125400
     11 NAM         -4.1880    -0.3210     2.2720 nd         1 08H      -0.345000
     12 NAN         -4.2930     0.4370     1.1990 nd         1 08H      -0.327000
     13 CAT         -3.0620     0.6010     0.6390 cc         1 08H       0.354800
     14 CAK         -2.6980     1.3220    -0.6220 c3         1 08H       0.085500
     15 NAL         -1.9990     0.5040    -1.5720 n2         1 08H      -0.570900
     16 CAO         -0.9090    -0.1310    -1.2960 ce         1 08H       0.531500
     17 CAQ         -0.3030    -0.9860    -2.3520 ca         1 08H      -0.146900
     18 CAF          0.0140    -2.3190    -2.0650 ca         1 08H      -0.099000
     19 CAD          0.5640    -3.1310    -3.0550 ca         1 08H      -0.135000
     20 CAC          0.8000    -2.6180    -4.3310 ca         1 08H      -0.115000
     21 CAE          0.4800    -1.2920    -4.6190 ca         1 08H      -0.135000
     22 CAG         -0.0770    -0.4750    -3.6350 ca         1 08H      -0.099000
     23 H1           1.7260    -0.0490    -1.1460 ha         1 08H       0.168000
     24 H2           2.1270     0.0590     3.1680 ha         1 08H       0.157000
     25 H3          -0.3310    -0.0050     3.4050 ha         1 08H       0.154000
     26 H4          -3.1370    -2.3290     3.8050 hc         1 08H       0.064700
     27 H5          -1.4350    -2.0960     3.2070 hc         1 08H       0.064700
     28 H6          -2.1350    -0.9550     4.4440 hc         1 08H       0.064700
     29 H7          -3.6480     1.6550    -1.1360 h1         1 08H       0.089200
     30 H8          -2.1030     2.2440    -0.3540 h1         1 08H       0.089200
     31 H12         -0.1770    -2.7250    -1.0600 ha         1 08H       0.142000
     32 H13          0.8080    -4.1790    -2.8290 ha         1 08H       0.136500
     33 H14          1.2350    -3.2610    -5.1100 ha         1 08H       0.135000
     34 H15          0.6590    -0.8880    -5.6260 ha         1 08H       0.136500
     35 H16         -0.3460     0.5660    -3.8700 ha         1 08H       0.142000
@<TRIPOS>BOND
     1     1     2 ar  
     2     1     7 ar  
     3     1    16 1   
     4     2     3 ar  
     5     2    23 1   
     6     3     4 1   
     7     3     5 ar  
     8     5     6 ar  
     9     5    24 1   
    10     6     7 ar  
    11     6    25 1   
    12     7     8 1   
    13     8     9 1   
    14     8    13 1   
    15     9    10 1   
    16     9    11 2   
    17    10    26 1   
    18    10    27 1   
    19    10    28 1   
    20    11    12 1   
    21    12    13 2   
    22    13    14 1   
    23    14    15 1   
    24    14    29 1   
    25    14    30 1   
    26    15    16 2   
    27    16    17 1   
    28    17    18 ar  
    29    17    22 ar  
    30    18    19 ar  
    31    18    31 1   
    32    19    20 ar  
    33    19    32 1   
    34    20    21 ar  
    35    20    33 1   
    36    21    22 ar  
    37    21    34 1   
    38    22    35 1   
@<TRIPOS>SUBSTRUCTURE
     1 08H         1 TEMP              0 ****  ****    0 ROOT
