@<TRIPOS>MOLECULE
molecule
   35    38     1     0     0
SMALL
bcc


@<TRIPOS>ATOM
      1 CAS          0.0000     0.0000     0.0000 ca         1 08H      -0.173900
      2 CAJ          1.4030     0.0000     0.0000 ca         1 08H      -0.082000
      3 CAP          2.1030     0.0000     1.1850 ca         1 08H       0.016400
      4 ClAB         3.8390    -0.0000     1.1650 cl         1 08H      -0.089400
      5 CAH          1.4280     0.0010     2.3950 ca         1 08H      -0.093000
      6 CAI          0.0470    -0.0100     2.4130 ca         1 08H      -0.138000
      7 CAU         -0.6730    -0.0240     1.2230 ca         1 08H       0.025800
      8 NAV         -2.0650    -0.0960     1.2930 na         1 08H      -0.248800
      9 CAR         -2.8850     0.4860     2.2060 cc         1 08H       0.369800
     10 CAA         -2.4710     1.4000     3.3310 c3         1 08H      -0.107400
     11 NAM         -4.1030     0.1040     1.9240 nd         1 08H      -0.344000
     12 NAN         -4.0930    -0.6620     0.8880 nd         1 08H      -0.332000
     13 CAT         -2.8730    -0.7950     0.4550 cc         1 08H       0.346800
     14 CAK         -2.4090    -1.5460    -0.7670 c3         1 08H       0.103500
     15 NAL         -1.7420    -0.5870    -1.6550 n2         1 08H      -0.579900
     16 CAO         -0.6900     0.0570    -1.2930 ce         1 08H       0.528500
     17 CAQ         -0.1040     0.9670    -2.3040 ca         1 08H      -0.149900
     18 CAF         -0.3190     0.7360    -3.6630 ca         1 08H      -0.093500
     19 CAD          0.2300     1.5880    -4.6000 ca         1 08H      -0.136000
     20 CAC          0.9920     2.6690    -4.1940 ca         1 08H      -0.110000
     21 CAE          1.2090     2.9030    -2.8480 ca         1 08H      -0.136000
     22 CAG          0.6610     2.0620    -1.9010 ca         1 08H      -0.093500
     23 H1           1.9400    -0.0110    -0.9410 ha         1 08H       0.167000
     24 H2           1.9820     0.0010     3.3250 ha         1 08H       0.155000
     25 H3          -0.4780    -0.0100     3.3600 ha         1 08H       0.156000
     26 H4          -2.0810     0.8100     4.1510 hc         1 08H       0.060367
     27 H5          -3.3290     1.9670     3.6710 hc         1 08H       0.060367
     28 H6          -1.7050     2.0810     2.9800 hc         1 08H       0.060367
     29 H7          -3.2620    -1.9820    -1.2740 h1         1 08H       0.084700
     30 H8          -1.7120    -2.3220    -0.4770 h1         1 08H       0.084700
     31 H12         -0.9160    -0.1100    -3.9820 ha         1 08H       0.144000
     32 H13          0.0630     1.4100    -5.6550 ha         1 08H       0.135000
     33 H14          1.4220     3.3330    -4.9330 ha         1 08H       0.132000
     34 H15          1.8050     3.7530    -2.5360 ha         1 08H       0.135000
     35 H16          0.8320     2.2470    -0.8480 ha         1 08H       0.144000
@<TRIPOS>BOND
     1    21    20 ar  
     2    21    22 ar  
     3    20    19 ar  
     4    22    17 ar  
     5    19    18 ar  
     6    17    18 ar  
     7    17    16 1   
     8    15    16 2   
     9    15    14 1   
    10    16     1 1   
    11    14    13 1   
    12     1     2 ar  
    13     1     7 ar  
    14     2     3 ar  
    15    13    12 2   
    16    13     8 1   
    17    12    11 1   
    18     8     7 1   
    19     8     9 1   
    20     7     6 ar  
    21     3     4 1   
    22     3     5 ar  
    23    11     9 2   
    24     9    10 1   
    25     6     5 ar  
    26     2    23 1   
    27     5    24 1   
    28     6    25 1   
    29    10    26 1   
    30    10    27 1   
    31    10    28 1   
    32    14    29 1   
    33    14    30 1   
    34    18    31 1   
    35    19    32 1   
    36    20    33 1   
    37    21    34 1   
    38    22    35 1   
@<TRIPOS>SUBSTRUCTURE
     1 08H         1 TEMP              0 ****  ****    0 ROOT
