@<TRIPOS>MOLECULE
08H
   35    38     1     0     0
SMALL
bcc


@<TRIPOS>ATOM
      1 CAS          0.0000     0.0000     0.0000 ca         1 08H      -0.136900
      2 CAJ          1.4030     0.0000     0.0000 ca         1 08H      -0.066000
      3 CAP          2.1030     0.0000     1.1850 ca         1 08H      -0.039600
      4 ClAB         3.8390    -0.0000     1.1650 cl         1 08H       0.000600
      5 CAH          1.4280     0.0010     2.3950 ca         1 08H      -0.071000
      6 CAI          0.0470    -0.0100     2.4130 ca         1 08H      -0.105000
      7 CAU         -0.6730    -0.0240     1.2230 ca         1 08H      -0.154200
      8 NAV         -2.0650    -0.0960     1.2930 na         1 08H       0.277200
      9 CAR         -2.8850     0.4860     2.2060 cc         1 08H       0.163800
     10 CAA         -2.4710     1.4000     3.3310 c3         1 08H       0.008600
     11 NAM         -4.1030     0.1040     1.9240 nd         1 08H      -0.322000
     12 NAN         -4.0930    -0.6620     0.8880 nd         1 08H      -0.298000
     13 CAT         -2.8730    -0.7950     0.4550 cc         1 08H       0.133800
     14 CAK         -2.4090    -1.5460    -0.7670 c3         1 08H       0.160500
     15 NAL         -1.7420    -0.5870    -1.6550 n2         1 08H      -0.500900
     16 CAO         -0.6900     0.0570    -1.2930 ce         1 08H       0.483500
     17 CAQ         -0.1040     0.9670    -2.3040 ca         1 08H      -0.158900
     18 CAF         -0.3190     0.7360    -3.6630 ca         1 08H      -0.074000
     19 CAD          0.2300     1.5880    -4.6000 ca         1 08H      -0.107500
     20 CAC          0.9920     2.6690    -4.1940 ca         1 08H      -0.084000
     21 CAE          1.2090     2.9030    -2.8480 ca         1 08H      -0.107500
     22 CAG          0.6610     2.0620    -1.9010 ca         1 08H      -0.074000
     23 H1           1.9400    -0.0110    -0.9410 ha         1 08H       0.138000
     24 H2           1.9820     0.0010     3.3250 ha         1 08H       0.123000
     25 H3          -0.4780    -0.0100     3.3600 ha         1 08H       0.132000
     26 H4          -2.0810     0.8100     4.1510 hc         1 08H       0.017700
     27 H5          -3.3290     1.9670     3.6710 hc         1 08H       0.017700
     28 H6          -1.7050     2.0810     2.9800 hc         1 08H       0.017700
     29 H7          -3.2620    -1.9820    -1.2740 h1         1 08H       0.037700
     30 H8          -1.7120    -2.3220    -0.4770 h1         1 08H       0.037700
     31 H12         -0.9160    -0.1100    -3.9820 ha         1 08H       0.117000
     32 H13          0.0630     1.4100    -5.6550 ha         1 08H       0.106000
     33 H14          1.4220     3.3330    -4.9330 ha         1 08H       0.103000
     34 H15          1.8050     3.7530    -2.5360 ha         1 08H       0.106000
     35 H16          0.8320     2.2470    -0.8480 ha         1 08H       0.117000
@<TRIPOS>BOND
     1     1     2 ar  
     2     1     7 ar  
     3     1    16 1   
     4     2     3 ar  
     5     2    23 1   
     6     3     4 1   
     7     3     5 ar  
     8     5     6 ar  
     9     5    24 1   
    10     6     7 ar  
    11     6    25 1   
    12     7     8 1   
    13     8     9 1   
    14     8    13 1   
    15     9    10 1   
    16     9    11 2   
    17    10    26 1   
    18    10    27 1   
    19    10    28 1   
    20    11    12 1   
    21    12    13 2   
    22    13    14 1   
    23    14    15 1   
    24    14    29 1   
    25    14    30 1   
    26    15    16 2   
    27    16    17 1   
    28    17    18 ar  
    29    17    22 ar  
    30    18    19 ar  
    31    18    31 1   
    32    19    20 ar  
    33    19    32 1   
    34    20    21 ar  
    35    20    33 1   
    36    21    22 ar  
    37    21    34 1   
    38    22    35 1   
@<TRIPOS>SUBSTRUCTURE
     1 08H         1 TEMP              0 ****  ****    0 ROOT
