@<TRIPOS>MOLECULE
08J
   36    39     1     0     0
SMALL
bcc


@<TRIPOS>ATOM
      1 CAU         -0.1450    -0.0090    -0.0450 ca         1 08J      -0.176900
      2 CAK          1.2490    -0.0250    -0.1850 ca         1 08J      -0.082000
      3 CAP          2.0810    -0.0130     0.9330 ca         1 08J       0.003400
      4 ClAC         3.7670    -0.0370     0.7350 cl         1 08J      -0.076400
      5 CAH          1.5300     0.0240     2.2170 ca         1 08J      -0.098000
      6 CAI          0.1510     0.0490     2.3740 ca         1 08J      -0.145000
      7 CAV         -0.7120     0.0260     1.2540 ca         1 08J       0.037800
      8 NAW         -2.1040     0.0540     1.4490 na         1 08J      -0.142000
      9 CAR         -2.8530    -0.5190     2.5120 cc         1 08J       0.422800
     10 CAA         -2.2910    -1.4390     3.5330 c3         1 08J      -0.127400
     11 NAN         -4.1540    -0.1460     2.4290 nd         1 08J      -0.661000
     12 CAJ         -4.2640     0.6760     1.3130 cd         1 08J       0.320200
     13 CAS         -3.0140     0.8190     0.6900 cc         1 08J      -0.221900
     14 CAL         -2.6450     1.5290    -0.5610 c3         1 08J       0.179100
     15 NAM         -2.0130     0.6910    -1.5450 n2         1 08J      -0.554900
     16 CAO         -0.9520     0.0030    -1.2910 ce         1 08J       0.525500
     17 CAT         -0.4130    -0.8740    -2.3640 ca         1 08J      -0.172900
     18 CAG         -0.4590    -2.2630    -2.2070 ca         1 08J      -0.081000
     19 CAE          0.0160    -3.1040    -3.2100 ca         1 08J      -0.147000
     20 CAD          0.5390    -2.5660    -4.3870 ca         1 08J      -0.095000
     21 CAF          0.5920    -1.1890    -4.5680 ca         1 08J      -0.171000
     22 CAQ          0.1100    -0.3320    -3.5580 ca         1 08J       0.152900
     23 FAB          0.1690     1.0070    -3.7430 f          1 08J      -0.130900
     24 H1           1.6850    -0.0450    -1.1990 ha         1 08J       0.164000
     25 H2           2.1830     0.0420     3.1040 ha         1 08J       0.155000
     26 H3          -0.2670     0.1040     3.3930 ha         1 08J       0.154000
     27 H4          -2.0110    -0.8600     4.4490 hc         1 08J       0.061367
     28 H5          -3.0600    -2.2000     3.8190 hc         1 08J       0.061367
     29 H6          -1.3870    -1.9700     3.1450 hc         1 08J       0.061367
     30 H7          -5.2190     1.1110     1.0170 h4         1 08J       0.048100
     31 H8          -1.9950     2.4210    -0.3170 h1         1 08J       0.078200
     32 H9          -3.5930     1.9130    -1.0410 h1         1 08J       0.078200
     33 H10         -0.8800    -2.6880    -1.2830 ha         1 08J       0.146000
     34 H11         -0.0270    -4.1950    -3.0750 ha         1 08J       0.141000
     35 H12          0.9110    -3.2330    -5.1790 ha         1 08J       0.140000
     36 H13          0.9980    -0.7540    -5.4930 ha         1 08J       0.152000
@<TRIPOS>BOND
     1     1     2 ar  
     2     1     7 ar  
     3     1    16 1   
     4     2     3 ar  
     5     2    24 1   
     6     3     4 1   
     7     3     5 ar  
     8     5     6 ar  
     9     5    25 1   
    10     6     7 ar  
    11     6    26 1   
    12     7     8 1   
    13     8     9 1   
    14     8    13 1   
    15     9    10 1   
    16     9    11 2   
    17    10    27 1   
    18    10    28 1   
    19    10    29 1   
    20    11    12 1   
    21    12    13 2   
    22    12    30 1   
    23    13    14 1   
    24    14    15 1   
    25    14    31 1   
    26    14    32 1   
    27    15    16 2   
    28    16    17 1   
    29    17    18 ar  
    30    17    22 ar  
    31    18    19 ar  
    32    18    33 1   
    33    19    20 ar  
    34    19    34 1   
    35    20    21 ar  
    36    20    35 1   
    37    21    22 ar  
    38    21    36 1   
    39    22    23 1   
@<TRIPOS>SUBSTRUCTURE
     1 08J         1 TEMP              0 ****  ****    0 ROOT
