@<TRIPOS>MOLECULE
08J
   36    39     1     0     0
SMALL
bcc


@<TRIPOS>ATOM
      1 CAU          0.0000     0.0000     0.0000 ca         1 08J      -0.138900
      2 CAK          1.4040     0.0000     0.0000 ca         1 08J      -0.065000
      3 CAP          2.1040     0.0000     1.1860 ca         1 08J      -0.039600
      4 ClAC         3.8390    -0.0000     1.1650 cl         1 08J      -0.007400
      5 CAH          1.4270     0.0020     2.3950 ca         1 08J      -0.070000
      6 CAI          0.0480    -0.0100     2.4120 ca         1 08J      -0.111000
      7 CAV         -0.6720    -0.0220     1.2230 ca         1 08J      -0.145200
      8 NAW         -2.0670    -0.0920     1.2960 na         1 08J       0.433000
      9 CAR         -2.8710     0.4830     2.2260 cc         1 08J       0.193800
     10 CAA         -2.4190     1.3820     3.3470 c3         1 08J       0.000600
     11 NAN         -4.1030     0.1250     1.9820 nd         1 08J      -0.609000
     12 CAJ         -4.1320    -0.6580     0.8910 cd         1 08J       0.351200
     13 CAS         -2.8720    -0.7910     0.4440 cc         1 08J      -0.461900
     14 CAL         -2.4070    -1.5500    -0.7730 c3         1 08J       0.264100
     15 NAM         -1.7360    -0.5950    -1.6630 n2         1 08J      -0.488900
     16 CAO         -0.6860     0.0540    -1.2950 ce         1 08J       0.481500
     17 CAT         -0.1000     0.9650    -2.3040 ca         1 08J      -0.171900
     18 CAG          0.4520     0.4490    -3.4770 ca         1 08J      -0.048000
     19 CAE          0.9970     1.3030    -4.4130 ca         1 08J      -0.117000
     20 CAD          0.9980     2.6690    -4.1920 ca         1 08J      -0.066000
     21 CAF          0.4530     3.1890    -3.0330 ca         1 08J      -0.134000
     22 CAQ         -0.1020     2.3450    -2.0880 ca         1 08J       0.126900
     23 FAB         -0.6390     2.8540    -0.9570 f          1 08J      -0.126900
     24 H1           1.9410    -0.0020    -0.9410 ha         1 08J       0.129000
     25 H2           1.9810     0.0020     3.3260 ha         1 08J       0.120000
     26 H3          -0.4780    -0.0080     3.3590 ha         1 08J       0.134000
     27 H4          -2.0380     0.7800     4.1620 hc         1 08J       0.016367
     28 H5          -3.2570     1.9740     3.6960 hc         1 08J       0.016367
     29 H6          -1.6360     2.0410     2.9890 hc         1 08J       0.016367
     30 H7          -5.0150    -1.1050     0.4500 h4         1 08J       0.007100
     31 H8          -3.2580    -1.9870    -1.2800 h1         1 08J       0.028200
     32 H9          -1.7100    -2.3250    -0.4760 h1         1 08J       0.028200
     33 H10          0.4530    -0.6200    -3.6520 ha         1 08J       0.114000
     34 H11          1.4260     0.9030    -5.3240 ha         1 08J       0.109000
     35 H12          1.4290     3.3350    -4.9300 ha         1 08J       0.107000
     36 H13          0.4550     4.2590    -2.8680 ha         1 08J       0.121000
@<TRIPOS>BOND
     1     1     2 ar  
     2     1     7 ar  
     3     1    16 1   
     4     2     3 ar  
     5     2    24 1   
     6     3     4 1   
     7     3     5 ar  
     8     5     6 ar  
     9     5    25 1   
    10     6     7 ar  
    11     6    26 1   
    12     7     8 1   
    13     8     9 1   
    14     8    13 1   
    15     9    10 1   
    16     9    11 2   
    17    10    27 1   
    18    10    28 1   
    19    10    29 1   
    20    11    12 1   
    21    12    13 2   
    22    12    30 1   
    23    13    14 1   
    24    14    15 1   
    25    14    31 1   
    26    14    32 1   
    27    15    16 2   
    28    16    17 1   
    29    17    18 ar  
    30    17    22 ar  
    31    18    19 ar  
    32    18    33 1   
    33    19    20 ar  
    34    19    34 1   
    35    20    21 ar  
    36    20    35 1   
    37    21    22 ar  
    38    21    36 1   
    39    22    23 1   
@<TRIPOS>SUBSTRUCTURE
     1 08J         1 TEMP              0 ****  ****    0 ROOT
