@<TRIPOS>MOLECULE
molecule
   37    40     1     0     0
SMALL
bcc


@<TRIPOS>ATOM
      1 ClA          0.0000     0.0000     0.0000 cl         1 08K      -0.091400
      2 CAP          1.7360     0.0000     0.0000 ca         1 08K       0.014400
      3 CAJ          2.4240     0.0000     1.1960 ca         1 08K      -0.083000
      4 CAS          3.8250     0.0010     1.2110 ca         1 08K      -0.186500
      5 CAO          4.4970     0.0670     2.5200 cc         1 08K       0.229000
      6 CAQ          3.8810     0.9500     3.5360 ca         1 08K      -0.166500
      7 CAG          4.0840     0.7040     4.8950 ca         1 08K      -0.095000
      8 CAE          3.5080     1.5300     5.8360 ca         1 08K      -0.134500
      9 CAC          2.7300     2.6040     5.4360 ca         1 08K      -0.109000
     10 CAD          2.5260     2.8540     4.0910 ca         1 08K      -0.134500
     11 CAF          3.1010     2.0370     3.1390 ca         1 08K      -0.095000
     12 NAL          5.5670    -0.5650     2.8750 nd         1 08K      -0.164400
     13 NAK          6.2740    -1.3780     1.9720 na         1 08K      -0.146800
     14 C23          6.5250    -2.7960     2.2380 c3         1 08K       0.102600
     15 CAT          6.7190    -0.7560     0.8090 cc         1 08K       0.482000
     16 NAV          5.9150    -0.0780    -0.0600 na         1 08K      -0.281800
     17 CAR          6.7470     0.4680    -0.9920 cc         1 08K       0.365800
     18 CAA          6.3490     1.3750    -2.1270 c3         1 08K      -0.105400
     19 NAM          7.9540     0.0550    -0.7110 nd         1 08K      -0.337000
     20 NAN          7.9370    -0.6830     0.3440 nd         1 08K      -0.350000
     21 CAU          4.5140    -0.0240    -0.0030 ca         1 08K       0.035800
     22 CAI          3.8090    -0.0120    -1.1980 ca         1 08K      -0.141000
     23 CAH          2.4260    -0.0060    -1.1990 ca         1 08K      -0.093000
     24 H1           1.8770    -0.0120     2.1310 ha         1 08K       0.165000
     25 H2           4.6920    -0.1360     5.2090 ha         1 08K       0.145000
     26 H3           3.6640     1.3390     6.8910 ha         1 08K       0.136000
     27 H4           2.2780     3.2490     6.1800 ha         1 08K       0.133000
     28 H5           1.9190     3.6970     3.7840 ha         1 08K       0.136000
     29 H6           2.9410     2.2340     2.0860 ha         1 08K       0.145000
     30 H7           5.6690    -3.2250     2.7460 h1         1 08K       0.045033
     31 H8           7.4030    -2.8970     2.8640 h1         1 08K       0.045033
     32 H9           6.6870    -3.3160     1.3020 h1         1 08K       0.045033
     33 H10          5.9490     0.7810    -2.9400 hc         1 08K       0.059367
     34 H11          7.2180     1.9220    -2.4720 hc         1 08K       0.059367
     35 H12          5.5950     2.0730    -1.7840 hc         1 08K       0.059367
     36 H13          4.3460    -0.0170    -2.1390 ha         1 08K       0.156000
     37 H14          1.8850     0.0470    -2.1360 ha         1 08K       0.155000
@<TRIPOS>BOND
     1    10     9 ar
     2    10    11 ar
     3     9     8 ar
     4    11     6 ar
     5     8     7 ar
     6     6     7 ar
     7     6     5 1
     8    12     5 2
     9    12    13 1
    10     5     4 1
    11    14    13 1
    12    13    15 1
    13     4     3 ar
    14     4    21 ar
    15     3     2 ar
    16    15    20 2
    17    15    16 1
    18    20    19 1
    19    16    21 1
    20    16    17 1
    21    21    22 ar
    22     2     1 1
    23     2    23 ar
    24    19    17 2
    25    17    18 1
    26    22    23 ar
    27     3    24 1
    28     7    25 1
    29     8    26 1
    30     9    27 1
    31    10    28 1
    32    11    29 1
    33    14    30 1
    34    14    31 1
    35    14    32 1
    36    18    33 1
    37    18    34 1
    38    18    35 1
    39    22    36 1
    40    23    37 1
@<TRIPOS>SUBSTRUCTURE
     1 08K         1 TEMP              0 ****  ****    0 ROOT
