@<TRIPOS>MOLECULE
08K
   37    40     1     0     0
SMALL
bcc


@<TRIPOS>ATOM
      1 ClA         -0.0050    -0.2510     0.3830 cl         1 08K      -0.074400
      2 CAP          1.6800    -0.1830     0.2020 ca         1 08K       0.006400
      3 CAJ          2.5010    -0.2110     1.3290 ca         1 08K      -0.083000
      4 CAS          3.8950    -0.1590     1.2040 ca         1 08K      -0.177500
      5 CAO          4.6910    -0.1390     2.4520 cc         1 08K       0.250000
      6 CAQ          4.1350    -0.9560     3.5600 ca         1 08K      -0.162500
      7 CAG          3.9130    -2.3250     3.3640 ca         1 08K      -0.100500
      8 CAE          3.4040    -3.1010     4.4040 ca         1 08K      -0.134000
      9 CAC          3.1170    -2.5180     5.6380 ca         1 08K      -0.116000
     10 CAD          3.3440    -1.1560     5.8360 ca         1 08K      -0.134000
     11 CAF          3.8570    -0.3730     4.8020 ca         1 08K      -0.100500
     12 NAL          5.7890     0.5240     2.7030 nd         1 08K      -0.248400
     13 NAK          6.3860     1.3390     1.7840 na         1 08K       0.013200
     14 C23          7.4770     2.1530     2.3460 c3         1 08K       0.009600
     15 CAT          6.7870     0.6830     0.5650 cc         1 08K       0.410000
     16 NAV          5.8640    -0.0240    -0.2600 na         1 08K      -0.275800
     17 CAR          6.6520    -0.4930    -1.3410 cc         1 08K       0.380800
     18 CAA          6.1660    -1.3290    -2.4620 c3         1 08K      -0.122400
     19 NAM          7.9380    -0.0770    -1.1410 nd         1 08K      -0.339000
     20 NAN          8.0300     0.6090    -0.0210 nd         1 08K      -0.351000
     21 CAU          4.4710    -0.0780    -0.0880 ca         1 08K       0.041800
     22 CAI          3.6220    -0.0350    -1.2170 ca         1 08K      -0.141000
     23 CAH          2.2420    -0.0930    -1.0750 ca         1 08K      -0.098000
     24 H1           2.0540    -0.2730     2.3370 ha         1 08K       0.167000
     25 H2           4.1430    -2.7850     2.3920 ha         1 08K       0.142500
     26 H3           3.2320    -4.1760     4.2490 ha         1 08K       0.137000
     27 H4           2.7150    -3.1340     6.4570 ha         1 08K       0.135000
     28 H5           3.1230    -0.6970     6.8110 ha         1 08K       0.137000
     29 H6           4.0480     0.6980     4.9630 ha         1 08K       0.142500
     30 H7           7.0800     2.7100     3.2350 h1         1 08K       0.060033
     31 H8           7.7750     2.8860     1.5510 h1         1 08K       0.060033
     32 H9           8.3700     1.5510     2.6550 h1         1 08K       0.060033
     33 H10          5.8770    -0.6760    -3.3240 hc         1 08K       0.064367
     34 H11          6.9820    -2.0180    -2.7990 hc         1 08K       0.064367
     35 H12          5.2830    -1.9420    -2.1540 hc         1 08K       0.064367
     36 H13          4.0490     0.0600    -2.2290 ha         1 08K       0.154000
     37 H14          1.5980    -0.0590    -1.9670 ha         1 08K       0.157000
@<TRIPOS>BOND
     1     1     2 1   
     2     2     3 ar  
     3     2    23 ar  
     4     3     4 ar  
     5     3    24 1   
     6     4     5 1   
     7     4    21 ar  
     8     5     6 1   
     9     5    12 2   
    10     6     7 ar  
    11     6    11 ar  
    12     7     8 ar  
    13     7    25 1   
    14     8     9 ar  
    15     8    26 1   
    16     9    10 ar  
    17     9    27 1   
    18    10    11 ar  
    19    10    28 1   
    20    11    29 1   
    21    12    13 1   
    22    13    14 1   
    23    13    15 1   
    24    14    30 1   
    25    14    31 1   
    26    14    32 1   
    27    15    16 1   
    28    15    20 2   
    29    16    17 1   
    30    16    21 1   
    31    17    18 1   
    32    17    19 2   
    33    18    33 1   
    34    18    34 1   
    35    18    35 1   
    36    19    20 1   
    37    21    22 ar  
    38    22    23 ar  
    39    22    36 1   
    40    23    37 1   
@<TRIPOS>SUBSTRUCTURE
     1 08K         1 TEMP              0 ****  ****    0 ROOT
