@<TRIPOS>MOLECULE
08Q
   44    45     1     0     0
SMALL
bcc


@<TRIPOS>ATOM
      1 P           -0.0520    -0.2490     0.0400 p5         1 08Q       1.300700
      2 OP1          1.1830    -1.0440     0.0140 o          1 08Q      -0.748000
      3 C8'         -2.2130    -3.4170    -1.2230 c3         1 08Q      -0.022300
      4 C7'         -1.2810    -2.2330    -1.0810 c3         1 08Q       0.091800
      5 C5'          0.8770     1.0260     2.1060 c3         1 08Q       0.166400
      6 O5'         -0.2470     0.4260     1.5140 os         1 08Q      -0.592200
      7 C4'          0.7720     2.5580     2.1200 c3         1 08Q       0.080100
      8 O4'          1.1210     3.0520     0.8220 os         1 08Q      -0.434600
      9 C3'         -0.6380     3.0650     2.4810 c3         1 08Q       0.142100
     10 O3'         -0.6230     3.8760     3.6320 oh         1 08Q      -0.600800
     11 C2'         -1.1370     3.8040     1.2360 c3         1 08Q      -0.138400
     12 C1'          0.0210     3.7600     0.2200 c3         1 08Q       0.302500
     13 N1           0.4890     5.0630    -0.2520 n          1 08Q      -0.371000
     14 C2           0.8740     6.0750     0.6670 c          1 08Q       0.817500
     15 O2           0.6570     5.9770     1.8970 o          1 08Q      -0.670500
     16 N3           1.4790     7.2390     0.1700 ns         1 08Q      -0.585500
     17 C4           1.7950     7.4240    -1.1870 c          1 08Q       0.716700
     18 N4          -1.3270    -1.5470     0.2160 ny         1 08Q      -0.709100
     19 O4           2.3480     8.4820    -1.5310 o          1 08Q      -0.611500
     20 C5           1.4370     6.3170    -2.0910 cc         1 08Q      -0.255400
     21 C7           1.7530     6.4850    -3.5230 c3         1 08Q      -0.030900
     22 C6           0.8410     5.1990    -1.5910 cd         1 08Q       0.044600
     23 S           -3.8710    -2.8580    -0.9420 sh         1 08Q      -0.374900
     24 OP3         -0.6290     0.6380    -0.9780 o          1 08Q      -0.748000
     25 H1          -2.1120    -3.8230    -2.2610 h1         1 08Q       0.085700
     26 H2          -1.9410    -4.2320    -0.5110 h1         1 08Q       0.085700
     27 H3          -1.5150    -1.4490    -1.8670 hx         1 08Q       0.129200
     28 H4          -0.2090    -2.5750    -1.2320 hx         1 08Q       0.129200
     29 H5           0.9110     0.6740     3.1750 h1         1 08Q       0.063700
     30 H6           1.8100     0.7060     1.5650 h1         1 08Q       0.063700
     31 H7           1.5440     2.9660     2.8310 h1         1 08Q       0.084700
     32 H8          -1.3130     2.2070     2.7510 h1         1 08Q       0.098700
     33 H9          -0.1090     4.6730     3.4320 ho         1 08Q       0.431000
     34 H10         -1.4440     4.8470     1.4980 hc         1 08Q       0.081700
     35 H11         -2.0180     3.2760     0.7940 hc         1 08Q       0.081700
     36 H12         -0.2720     3.1540    -0.6950 h2         1 08Q       0.116700
     37 H13          1.7200     7.9430     0.8350 hn         1 08Q       0.350500
     38 H14         -1.1060    -2.1870     0.9690 hn         1 08Q       0.437800
     39 H15          1.0880     7.2660    -3.9720 hc         1 08Q       0.051367
     40 H16          2.8120     6.8270    -3.6430 hc         1 08Q       0.051367
     41 H17          1.6150     5.5290    -4.0840 hc         1 08Q       0.051367
     42 H18          0.5840     4.3410    -2.2430 h4         1 08Q       0.175000
     43 H19         -4.4380    -4.0100    -0.6190 hs         1 08Q       0.223800
     44 H42         -2.2570    -1.1710     0.3790 hn         1 08Q       0.437800
@<TRIPOS>BOND
     1     1     2 1   
     2     1     6 1   
     3     1    18 1   
     4     1    24 1   
     5     3     4 1   
     6     3    23 1   
     7     3    25 1   
     8     3    26 1   
     9     4    18 1   
    10     4    27 1   
    11     4    28 1   
    12     5     6 1   
    13     5     7 1   
    14     5    29 1   
    15     5    30 1   
    16     7     8 1   
    17     7     9 1   
    18     7    31 1   
    19     8    12 1   
    20     9    10 1   
    21     9    11 1   
    22     9    32 1   
    23    10    33 1   
    24    11    12 1   
    25    11    34 1   
    26    11    35 1   
    27    12    13 1   
    28    12    36 1   
    29    13    14 1   
    30    13    22 1   
    31    14    15 2   
    32    14    16 1   
    33    16    17 1   
    34    16    37 1   
    35    17    19 2   
    36    17    20 1   
    37    18    38 1   
    38    18    44 1   
    39    20    21 1   
    40    20    22 2   
    41    21    39 1   
    42    21    40 1   
    43    21    41 1   
    44    22    42 1   
    45    23    43 1   
@<TRIPOS>SUBSTRUCTURE
     1 08Q         1 TEMP              0 ****  ****    0 ROOT
