@<TRIPOS>MOLECULE
08Q
   43    44     1     0     0
SMALL
bcc


@<TRIPOS>ATOM
      1 P            0.0000     0.0000     0.0000 p5         1 08Q       0.743700
      2 OP1          1.4800     0.0000     0.0000 o          1 08Q      -0.627500
      3 C8'         -2.5130     2.8120    -0.4460 c3         1 08Q       0.102700
      4 C7'         -2.0300     1.4080    -0.8130 c3         1 08Q       0.227800
      5 C5'         -0.0690     0.9190     2.5080 c3         1 08Q       0.272400
      6 O5'         -0.5370     0.0000     1.5180 os         1 08Q      -0.452200
      7 C4'         -0.7820     0.6450     3.8350 c3         1 08Q       0.156100
      8 O4'         -0.3910    -0.6370     4.3410 os         1 08Q      -0.381600
      9 C3'         -0.3700     1.7040     4.8790 c3         1 08Q       0.157100
     10 O3'         -1.3810     2.7030     5.0170 oh         1 08Q      -0.574800
     11 C2'         -0.2480     0.8590     6.1760 c3         1 08Q      -0.111400
     12 C1'          0.2740    -0.4840     5.6050 c3         1 08Q       0.232500
     13 N1          -0.0760    -1.5880     6.5010 n          1 08Q       0.052000
     14 C2           0.4170    -1.6130     7.7520 c          1 08Q       0.589500
     15 O2           1.1490    -0.7180     8.1260 o          1 08Q      -0.726500
     16 N3           0.1110    -2.6160     8.5960 ns         1 08Q      -0.130500
     17 C4          -0.7000    -3.6170     8.1970 c          1 08Q       0.625700
     18 N4          -0.5610     1.3740    -0.7930 n7         1 08Q      -0.626300
     19 O4          -0.9770    -4.5250     8.9610 o          1 08Q      -0.683500
     20 C5          -1.2250    -3.6040     6.8830 cc         1 08Q      -0.308400
     21 C7          -2.1330    -4.7100     6.4120 c3         1 08Q       0.095100
     22 C6          -0.9060    -2.5820     6.0590 cd         1 08Q      -0.067400
     23 S           -4.3260     2.8540    -0.4700 sh         1 08Q      -0.439900
     24 OP3         -0.5370    -1.3150    -0.7580 o          1 08Q      -0.627500
     25 H1          -2.1590     3.0690     0.5450 h1         1 08Q       0.022700
     26 H2          -2.1260     3.5260    -1.1640 h1         1 08Q       0.022700
     27 H3          -2.3840     1.1520    -1.8040 h1         1 08Q       0.019700
     28 H4          -2.4170     0.6950    -0.0950 h1         1 08Q       0.019700
     29 H5          -0.2780     1.9320     2.1880 h1         1 08Q      -0.014300
     30 H6           0.9990     0.7950     2.6400 h1         1 08Q      -0.014300
     31 H7          -1.8550     0.6700     3.6930 h1         1 08Q       0.047700
     32 H8           0.5850     2.1460     4.6200 h1         1 08Q       0.018700
     33 H9          -0.9800     3.5290     5.2310 ho         1 08Q       0.385000
     34 H10         -1.2150     0.7300     6.6470 hc         1 08Q       0.044200
     35 H11          0.4720     1.2960     6.8580 hc         1 08Q       0.044200
     36 H12          1.3470    -0.4360     5.4600 h2         1 08Q       0.047700
     37 H13          0.4870    -2.6190     9.5240 hn         1 08Q       0.198500
     38 H14         -0.0410     1.7580    -1.5580 hn         1 08Q       0.297800
     39 H15         -1.8200    -5.0410     5.4300 hc         1 08Q       0.011033
     40 H16         -3.1520    -4.3440     6.3620 hc         1 08Q       0.011033
     41 H17         -2.0820    -5.5400     7.1070 hc         1 08Q       0.011033
     42 H18         -1.2980    -2.5550     5.0500 h4         1 08Q       0.171000
     43 H19         -4.7440     4.0840    -0.1980 hs         1 08Q       0.157800
@<TRIPOS>BOND
     1     1     2 1   
     2     1     6 1   
     3     1    18 1   
     4     1    24 1   
     5     3     4 1   
     6     3    23 1   
     7     3    25 1   
     8     3    26 1   
     9     4    18 1   
    10     4    27 1   
    11     4    28 1   
    12     5     6 1   
    13     5     7 1   
    14     5    29 1   
    15     5    30 1   
    16     7     8 1   
    17     7     9 1   
    18     7    31 1   
    19     8    12 1   
    20     9    10 1   
    21     9    11 1   
    22     9    32 1   
    23    10    33 1   
    24    11    12 1   
    25    11    34 1   
    26    11    35 1   
    27    12    13 1   
    28    12    36 1   
    29    13    14 1   
    30    13    22 1   
    31    14    15 2   
    32    14    16 1   
    33    16    17 1   
    34    16    37 1   
    35    17    19 2   
    36    17    20 1   
    37    18    38 1   
    38    20    21 1   
    39    20    22 2   
    40    21    39 1   
    41    21    40 1   
    42    21    41 1   
    43    22    42 1   
    44    23    43 1   
@<TRIPOS>SUBSTRUCTURE
     1 08Q         1 TEMP              0 ****  ****    0 ROOT
