@<TRIPOS>MOLECULE
molecule
   43    44     1     0     0
SMALL
bcc


@<TRIPOS>ATOM
      1 P            0.0000     0.0000     0.0000 p5         1 08Q       1.276700
      2 OP1          1.4800     0.0000     0.0000 o          1 08Q      -0.802500
      3 C8'         -2.5130     2.8120    -0.4460 c3         1 08Q       0.043700
      4 C7'         -2.0300     1.4080    -0.8130 c3         1 08Q       0.226800
      5 C5'         -0.0690     0.9190     2.5080 c3         1 08Q       0.202400
      6 O5'         -0.5370     0.0000     1.5180 os         1 08Q      -0.563200
      7 C4'         -0.7820     0.6450     3.8350 c3         1 08Q       0.136100
      8 O4'         -0.3910    -0.6370     4.3410 os         1 08Q      -0.394600
      9 C3'         -0.3700     1.7040     4.8790 c3         1 08Q       0.108100
     10 O3'         -1.3810     2.7030     5.0170 oh         1 08Q      -0.591800
     11 C2'         -0.2480     0.8590     6.1760 c3         1 08Q      -0.154400
     12 C1'          0.2740    -0.4840     5.6050 c3         1 08Q       0.318500
     13 N1          -0.0760    -1.5880     6.5010 n          1 08Q      -0.362000
     14 C2           0.4170    -1.6130     7.7520 c          1 08Q       0.812500
     15 O2           1.1490    -0.7180     8.1260 o          1 08Q      -0.673500
     16 N3           0.1110    -2.6160     8.5960 ns         1 08Q      -0.562500
     17 C4          -0.7000    -3.6170     8.1970 c          1 08Q       0.711700
     18 N4          -0.5610     1.3740    -0.7930 n7         1 08Q      -0.936300
     19 O4          -0.9770    -4.5250     8.9610 o          1 08Q      -0.643500
     20 C5          -1.2250    -3.6040     6.8830 cc         1 08Q      -0.305400
     21 C7          -2.1330    -4.7100     6.4120 c3         1 08Q      -0.016900
     22 C6          -0.9060    -2.5820     6.0590 cd         1 08Q       0.063600
     23 S           -4.3260     2.8540    -0.4700 sh         1 08Q      -0.457900
     24 OP3         -0.5370    -1.3150    -0.7580 o          1 08Q      -0.802500
     25 H1          -2.1590     3.0690     0.5450 h1         1 08Q       0.050200
     26 H2          -2.1260     3.5260    -1.1640 h1         1 08Q       0.050200
     27 H3          -2.3840     1.1520    -1.8040 h1         1 08Q       0.053200
     28 H4          -2.4170     0.6950    -0.0950 h1         1 08Q       0.053200
     29 H5          -0.2780     1.9320     2.1880 h1         1 08Q       0.031200
     30 H6           0.9990     0.7950     2.6400 h1         1 08Q       0.031200
     31 H7          -1.8550     0.6700     3.6930 h1         1 08Q       0.090700
     32 H8           0.5850     2.1460     4.6200 h1         1 08Q       0.051700
     33 H9          -0.9800     3.5290     5.2310 ho         1 08Q       0.402000
     34 H10         -1.2150     0.7300     6.6470 hc         1 08Q       0.077200
     35 H11          0.4720     1.2960     6.8580 hc         1 08Q       0.077200
     36 H12          1.3470    -0.4360     5.4600 h2         1 08Q       0.088700
     37 H13          0.4870    -2.6190     9.5240 hn         1 08Q       0.355500
     38 H14         -0.0410     1.7580    -1.5580 hn         1 08Q       0.411800
     39 H15         -1.8200    -5.0410     5.4300 hc         1 08Q       0.048033
     40 H16         -3.1520    -4.3440     6.3620 hc         1 08Q       0.048033
     41 H17         -2.0820    -5.5400     7.1070 hc         1 08Q       0.048033
     42 H18         -1.2980    -2.5550     5.0500 h4         1 08Q       0.203000
     43 H19         -4.7440     4.0840    -0.1980 hs         1 08Q       0.196800
@<TRIPOS>BOND
     1     3     4 1
     2     3    23 1
     3     4    18 1
     4    18     1 1
     5     6     5 1
     6     6     1 1
     7     5     7 1
     8    10     9 1
     9     1     2 1
    10     9     7 1
    11     9    11 1
    12     7     8 1
    13     8    12 1
    14    11    12 1
    15    12    13 1
    16    13    22 1
    17    13    14 1
    18    22    20 2
    19    15    14 2
    20    14    16 1
    21    20    21 1
    22    20    17 1
    23    16    17 1
    24    17    19 2
    25     1    24 1
    26     3    25 1
    27     3    26 1
    28     4    27 1
    29     4    28 1
    30     5    29 1
    31     5    30 1
    32     7    31 1
    33     9    32 1
    34    10    33 1
    35    11    34 1
    36    11    35 1
    37    12    36 1
    38    16    37 1
    39    18    38 1
    40    21    39 1
    41    21    40 1
    42    21    41 1
    43    22    42 1
    44    23    43 1
@<TRIPOS>SUBSTRUCTURE
     1 08Q         1 TEMP              0 ****  ****    0 ROOT
