@<TRIPOS>MOLECULE
molecule
   57    59     1     0     0
SMALL
bcc


@<TRIPOS>ATOM
      1 N02          0.0000     0.0000     0.0000 nv         1 08R      -1.016500
      2 C02          1.3900     0.0000     0.0000 ca         1 08R       0.709200
      3 C03          2.0790     0.0000     1.2090 ca         1 08R      -0.332300
      4 C04          3.4610    -0.0000     1.1950 ca         1 08R      -0.006300
      5 C07          4.2450    -0.0010     2.4820 c3         1 08R      -0.049800
      6 C05          4.1120     0.0000    -0.0320 ca         1 08R      -0.308300
      7 N01          2.0460    -0.0050    -1.1490 nb         1 08R      -0.778000
      8 C06          3.3650     0.0010    -1.1930 ca         1 08R       0.478600
      9 C08          4.0650     0.0020    -2.5280 c3         1 08R      -0.113700
     10 C3'          3.5700    -1.1800    -3.3640 c3         1 08R      -0.059700
     11 C2'          2.0810    -0.9910    -3.7310 c3         1 08R       0.151800
     12 N1'          1.9660    -1.5220    -5.1140 n7         1 08R      -0.800200
     13 C5'          3.2100    -1.0640    -5.7850 c3         1 08R       0.112800
     14 C4'          4.3110    -1.2280    -4.7160 c3         1 08R       0.135100
     15 O09          5.2520    -0.1560    -4.8040 os         1 08R      -0.408600
     16 C10          6.3980    -0.4520    -5.6050 c3         1 08R       0.139400
     17 C11          7.3310     0.7600    -5.6280 c3         1 08R       0.157800
     18 N12          7.8530     1.0020    -4.2760 n7         1 08R      -0.804200
     19 C13          8.7550     2.1620    -4.2610 c3         1 08R       0.212100
     20 C21          9.2690     2.3790    -2.8610 ca         1 08R      -0.109300
     21 C22         10.3140     1.6050    -2.3770 ca         1 08R       0.140100
     22 O22         10.8740     0.6490    -3.1650 os         1 08R      -0.337900
     23 C27         11.9450    -0.1110    -2.6010 c3         1 08R       0.129700
     24 C26          8.7060     3.3530    -2.0600 ca         1 08R      -0.073000
     25 C25          9.1770     3.5530    -0.7770 ca         1 08R      -0.166000
     26 C24         10.2150     2.7780    -0.2900 ca         1 08R      -0.090000
     27 C23         10.7850     1.8070    -1.0890 ca         1 08R      -0.219000
     28 H1          -0.5000     0.0010     0.8670 hn         1 08R       0.436800
     29 H2          -0.5000     0.0000    -0.8670 hn         1 08R       0.436800
     30 H3           1.5460    -0.1770     2.1360 ha         1 08R       0.131000
     31 H4           4.4690     1.0190     2.7700 hc         1 08R       0.045700
     32 H5           3.6600    -0.4760     3.2610 hc         1 08R       0.045700
     33 H6           5.1700    -0.5480     2.3420 hc         1 08R       0.045700
     34 H7           5.1940     0.0020    -0.0780 ha         1 08R       0.141000
     35 H8           3.8490     0.9270    -3.0480 hc         1 08R       0.073700
     36 H9           5.1330    -0.0870    -2.3750 hc         1 08R       0.073700
     37 H10          3.7080    -2.1110    -2.8290 hc         1 08R       0.063700
     38 H11          1.4520    -1.5600    -3.0560 h1         1 08R       0.054200
     39 H12          1.8180     0.0600    -3.7080 h1         1 08R       0.054200
     40 H13          1.1730    -1.1100    -5.5640 hn         1 08R       0.344800
     41 H15          3.4240    -1.6870    -6.6450 h1         1 08R       0.043700
     42 H16          3.1200    -0.0250    -6.0760 h1         1 08R       0.043700
     43 H17          4.8090    -2.1830    -4.8350 h1         1 08R       0.046700
     44 H18          6.9210    -1.3030    -5.1850 h1         1 08R       0.023700
     45 H19          6.0820    -0.6850    -6.6150 h1         1 08R       0.023700
     46 H20          8.1540     0.5690    -6.3050 h1         1 08R       0.040200
     47 H21          6.7820     1.6320    -5.9640 h1         1 08R       0.040200
     48 H22          8.3470     0.1910    -3.9600 hn         1 08R       0.359800
     49 H24          9.5890     1.9810    -4.9280 h1         1 08R       0.039700
     50 H25          8.2150     3.0430    -4.5880 h1         1 08R       0.039700
     51 H26         12.7560     0.5540    -2.3300 h1         1 08R       0.041700
     52 H27         11.5930    -0.6310    -1.7180 h1         1 08R       0.041700
     53 H28         12.2970    -0.8330    -3.3280 h1         1 08R       0.041700
     54 H29          7.8930     3.9610    -2.4390 ha         1 08R       0.140000
     55 H30          8.7320     4.3170    -0.1500 ha         1 08R       0.131000
     56 H31         10.5830     2.9360     0.7170 ha         1 08R       0.129000
     57 H32         11.5990     1.2020    -0.7080 ha         1 08R       0.133000
@<TRIPOS>BOND
     1     5     4 1   
     2     4     3 ar  
     3     4     6 ar  
     4     3     2 ar  
     5     6     8 ar  
     6     2     1 1   
     7     2     7 ar  
     8     8     7 ar  
     9     8     9 1   
    10    10    11 1   
    11    10     9 1   
    12    10    14 1   
    13    11    12 1   
    14    16    15 1   
    15    16    17 1   
    16    14    15 1   
    17    14    13 1   
    18    12    13 1   
    19    17    18 1   
    20    18    19 1   
    21    19    20 1   
    22    22    21 1   
    23    22    23 1   
    24    20    21 ar  
    25    20    24 ar  
    26    21    27 ar  
    27    24    25 ar  
    28    27    26 ar  
    29    25    26 ar  
    30     1    28 1   
    31     1    29 1   
    32     3    30 1   
    33     5    31 1   
    34     5    32 1   
    35     5    33 1   
    36     6    34 1   
    37     9    35 1   
    38     9    36 1   
    39    10    37 1   
    40    11    38 1   
    41    11    39 1   
    42    12    40 1   
    43    13    41 1   
    44    13    42 1   
    45    14    43 1   
    46    16    44 1   
    47    16    45 1   
    48    17    46 1   
    49    17    47 1   
    50    18    48 1   
    51    19    49 1   
    52    19    50 1   
    53    23    51 1   
    54    23    52 1   
    55    23    53 1   
    56    24    54 1   
    57    25    55 1   
    58    26    56 1   
    59    27    57 1   
@<TRIPOS>SUBSTRUCTURE
     1 08R         1 TEMP              0 ****  ****    0 ROOT
