@<TRIPOS>MOLECULE
08R
   58    60     1     0     0
SMALL
bcc


@<TRIPOS>ATOM
      1 N02          1.6390     2.0050    -1.3320 nv         1 08R      -0.932500
      2 C02          2.7210     1.2040    -0.9500 ca         1 08R       0.648200
      3 C03          3.1960     1.2770     0.3980 ca         1 08R      -0.295300
      4 C04          4.3320     0.5580     0.7540 ca         1 08R       0.007700
      5 C07          4.8670     0.6160     2.1340 c3         1 08R      -0.066800
      6 C05          4.9760    -0.2210    -0.2200 ca         1 08R      -0.290300
      7 N01          3.3400     0.4290    -1.8950 nb         1 08R      -0.760000
      8 C06          4.4490    -0.2500    -1.5220 ca         1 08R       0.433600
      9 C08          5.1790    -1.0600    -2.5590 c3         1 08R      -0.108700
     10 C3'          4.2760    -1.9470    -3.3860 c3         1 08R      -0.063700
     11 C2'          3.4470    -1.1790    -4.4430 c3         1 08R       0.143800
     12 N1'          3.5430    -1.8960    -5.7220 n7         1 08R      -0.864200
     13 C5'          4.1570    -3.1970    -5.4560 c3         1 08R       0.098800
     14 C4'          5.0570    -2.9990    -4.2150 c3         1 08R       0.121100
     15 O09          6.3290    -2.4130    -4.5100 os         1 08R      -0.429600
     16 C10          7.0520    -2.9520    -5.5970 c3         1 08R       0.113400
     17 C11          6.8650    -2.1300    -6.8900 c3         1 08R       0.068800
     18 N12          6.0890    -0.8760    -6.7050 ny         1 08R      -0.776000
     19 C13          6.2200     0.0700    -7.8570 c3         1 08R       0.186100
     20 C21          7.4360     0.9230    -7.7650 ca         1 08R      -0.210300
     21 C22          8.6230     0.5660    -8.4370 ca         1 08R       0.156100
     22 O22          8.5960    -0.6510    -9.0870 os         1 08R      -0.362900
     23 C27          9.6720    -0.9110    -9.9920 c3         1 08R       0.111700
     24 C26          7.3980     2.1270    -7.0500 ca         1 08R      -0.075000
     25 C25          8.5110     2.9610    -7.0090 ca         1 08R      -0.151000
     26 C24          9.6790     2.6010    -7.6870 ca         1 08R      -0.051000
     27 C23          9.7430     1.4090    -8.4020 ca         1 08R      -0.193000
     28 H1           1.0220     2.2460    -0.5910 hn         1 08R       0.411300
     29 H2           1.1910     1.7780    -2.1900 hn         1 08R       0.411300
     30 H3           2.6750     1.8990     1.1390 ha         1 08R       0.151000
     31 H4           4.0980     0.9940     2.8520 hc         1 08R       0.056700
     32 H5           5.7490     1.3050     2.1690 hc         1 08R       0.056700
     33 H6           5.2010    -0.3970     2.4700 hc         1 08R       0.056700
     34 H7           5.8740    -0.7960     0.0370 ha         1 08R       0.145000
     35 H8           5.7440    -0.3580    -3.2310 hc         1 08R       0.059700
     36 H9           5.9400    -1.7080    -2.0460 hc         1 08R       0.059700
     37 H10          3.5790    -2.5030    -2.7030 hc         1 08R       0.084700
     38 H11          3.8610    -0.1460    -4.6000 h1         1 08R       0.067200
     39 H12          2.3850    -1.0720    -4.0920 h1         1 08R       0.067200
     40 H13          2.6480    -1.9950    -6.1600 hn         1 08R       0.387800
     41 H15          3.4020    -3.9990    -5.2240 h1         1 08R       0.058700
     42 H16          4.7290    -3.5250    -6.3630 h1         1 08R       0.058700
     43 H17          5.2290    -3.9590    -3.6660 h1         1 08R       0.082700
     44 H18          8.1290    -2.8830    -5.2710 h1         1 08R       0.082700
     45 H19          6.7920    -4.0240    -5.7940 h1         1 08R       0.082700
     46 H20          6.3350    -2.7470    -7.6690 hx         1 08R       0.104200
     47 H21          7.8820    -1.8580    -7.3010 hx         1 08R       0.104200
     48 H22          5.0790    -1.1220    -6.5600 hn         1 08R       0.471800
     49 H24          5.2950     0.7180    -7.8510 hx         1 08R       0.105200
     50 H25          6.2360    -0.5360    -8.8090 hx         1 08R       0.105200
     51 H26          9.7690    -0.0860   -10.7380 h1         1 08R       0.060367
     52 H27         10.6240    -1.0510    -9.4250 h1         1 08R       0.060367
     53 H28          9.3630    -1.8650   -10.4910 h1         1 08R       0.060367
     54 H29          6.4730     2.4220    -6.5300 ha         1 08R       0.141000
     55 H30          8.4690     3.9070    -6.4470 ha         1 08R       0.159000
     56 H31         10.5570     3.2670    -7.6580 ha         1 08R       0.158000
     57 H32         10.6670     1.1380    -8.9350 ha         1 08R       0.159000
     58 H122         6.4160    -0.4200    -5.8440 hn         1 08R       0.471800
@<TRIPOS>BOND
     1     1     2 1   
     2     1    28 1   
     3     1    29 1   
     4     2     3 ar  
     5     2     7 ar  
     6     3     4 ar  
     7     3    30 1   
     8     4     5 1   
     9     4     6 ar  
    10     5    31 1   
    11     5    32 1   
    12     5    33 1   
    13     6     8 ar  
    14     6    34 1   
    15     7     8 ar  
    16     8     9 1   
    17     9    10 1   
    18     9    35 1   
    19     9    36 1   
    20    10    11 1   
    21    10    14 1   
    22    10    37 1   
    23    11    12 1   
    24    11    38 1   
    25    11    39 1   
    26    12    13 1   
    27    12    40 1   
    28    13    14 1   
    29    13    41 1   
    30    13    42 1   
    31    14    15 1   
    32    14    43 1   
    33    15    16 1   
    34    16    17 1   
    35    16    44 1   
    36    16    45 1   
    37    17    18 1   
    38    17    46 1   
    39    17    47 1   
    40    18    19 1   
    41    18    48 1   
    42    18    58 1   
    43    19    20 1   
    44    19    49 1   
    45    19    50 1   
    46    20    21 ar  
    47    20    24 ar  
    48    21    22 1   
    49    21    27 ar  
    50    22    23 1   
    51    23    51 1   
    52    23    52 1   
    53    23    53 1   
    54    24    25 ar  
    55    24    54 1   
    56    25    26 ar  
    57    25    55 1   
    58    26    27 ar  
    59    26    56 1   
    60    27    57 1   
@<TRIPOS>SUBSTRUCTURE
     1 08R         1 TEMP              0 ****  ****    0 ROOT
