@<TRIPOS>MOLECULE
08S
   54    57     1     0     0
SMALL
bcc


@<TRIPOS>ATOM
      1 C1           0.0000     0.0000     0.0000 c3         1 08S       0.005900
      2 C2           2.0410     0.0000     1.4420 c3         1 08S       0.005900
      3 C3           0.0320    -6.5760    -4.5060 ca         1 08S      -0.131000
      4 C4          -0.3830    -6.2690    -2.1680 ca         1 08S      -0.131000
      5 C5           1.3600    -6.2480    -4.3130 ca         1 08S       0.017000
      6 C6           0.9470    -5.9420    -1.9750 ca         1 08S       0.017000
      7 C7          -9.7110   -12.8610    -4.1860 ca         1 08S      -0.135000
      8 C8          -8.3770   -12.9470    -3.9380 ca         1 08S      -0.016000
      9 C9          -9.5460   -10.4850    -4.4660 ca         1 08S      -0.101000
     10 C11         -2.4720    -8.4530    -3.4790 c3         1 08S       0.054000
     11 C12         -0.8400    -6.5860    -3.4330 ca         1 08S      -0.034300
     12 C13          1.8180    -5.9320    -3.0480 ca         1 08S      -0.165500
     13 C14        -10.3070   -11.6320    -4.4520 ca         1 08S       0.130900
     14 C15         -7.5700   -11.7840    -3.9470 ca         1 08S      -0.108800
     15 C16         -8.1730   -10.5490    -4.2140 ca         1 08S       0.071900
     16 C17         -6.1880   -11.6710    -3.7160 cc         1 08S       0.037200
     17 C18         -5.6910   -10.4310    -3.7900 cd         1 08S      -0.089600
     18 C19          2.0330    -1.2310    -0.7110 cc         1 08S       0.407700
     19 C20          3.0170    -3.0200    -2.1020 cc         1 08S       0.599300
     20 C21          1.5300     0.0000     0.0000 c3         1 08S      -0.047000
     21 C22         -4.2800   -10.0840    -3.5850 c          1 08S       0.628300
     22 N23          1.7930    -2.4560    -0.3720 nd         1 08S      -0.241000
     23 N24          2.2930    -3.3730    -1.0790 nd         1 08S      -0.359000
     24 N25         -3.8800    -8.7990    -3.6820 ns         1 08S      -0.193900
     25 N26          3.6470    -3.8760    -2.9930 nu         1 08S      -0.435800
     26 O27         -3.4700   -10.9540    -3.3290 o          1 08S      -0.632100
     27 O28          3.7980    -5.7850    -1.4370 o          1 08S      -0.563800
     28 O29          4.2300    -6.1050    -3.8780 o          1 08S      -0.563800
     29 S31         -6.9580    -9.2760    -4.1650 ss         1 08S      -0.195500
     30 S32          3.0460    -1.2560    -2.1560 ss         1 08S      -0.418800
     31 S33          3.5130    -5.5150    -2.8030 sy         1 08S       1.032200
     32 Cl          -5.1920   -13.0480    -3.3600 cl         1 08S       0.060600
     33 H11C        -0.3610    -0.0780    -1.0180 hc         1 08S       0.010867
     34 H12C        -0.3610    -0.8430     0.5770 hc         1 08S       0.010867
     35 H13C        -0.3610     0.9210     0.4410 hc         1 08S       0.010867
     36 H21          1.8910     0.8850    -0.5110 hc         1 08S       0.031700
     37 H21C         3.1210    -0.0790     1.4430 hc         1 08S       0.010867
     38 H22C         1.7460     0.9210     1.9300 hc         1 08S       0.010867
     39 H23C         1.6170    -0.8420     1.9760 hc         1 08S       0.010867
     40 H3          -0.3270    -6.8240    -5.4980 ha         1 08S       0.114500
     41 H5           2.0440    -6.2400    -5.1540 ha         1 08S       0.134000
     42 H4          -1.0660    -6.2770    -1.3270 ha         1 08S       0.114500
     43 H6           1.3050    -5.6930    -0.9830 ha         1 08S       0.134000
     44 H7         -10.3160   -13.7600    -4.1760 ha         1 08S       0.124000
     45 H8          -7.9290   -13.9110    -3.7330 ha         1 08S       0.117000
     46 H9         -10.0130    -9.5300    -4.6740 ha         1 08S       0.129000
     47 H101        -2.5930    -6.6490    -4.6410 hc         1 08S       0.023700
     48 H102        -2.8980    -6.4240    -2.9130 hc         1 08S       0.023700
     49 H111        -2.1690    -8.7470    -2.4810 h1         1 08S       0.032700
     50 H112        -1.8630    -8.9720    -4.2090 h1         1 08S       0.032700
     51 H25         -4.5460    -8.0830    -3.8940 hn         1 08S       0.181500
     52 H26          4.2000    -3.5030    -3.7400 hn         1 08S       0.353800
     53 C10         -2.2890    -6.9430    -3.6430 c3         1 08S       0.008900
     54 F30        -11.6340   -11.5650    -4.6970 f          1 08S      -0.121900
@<TRIPOS>BOND
     1     1    20 1   
     2     1    33 1   
     3     1    34 1   
     4     1    35 1   
     5     2    20 1   
     6     2    37 1   
     7     2    38 1   
     8     2    39 1   
     9     3     5 ar  
    10     3    11 ar  
    11     3    40 1   
    12     4     6 ar  
    13     4    11 ar  
    14     4    42 1   
    15     5    12 ar  
    16     5    41 1   
    17     6    12 ar  
    18     6    43 1   
    19     7     8 ar  
    20     7    13 ar  
    21     7    44 1   
    22     8    14 ar  
    23     8    45 1   
    24     9    13 ar  
    25     9    15 ar  
    26     9    46 1   
    27    10    24 1   
    28    10    49 1   
    29    10    50 1   
    30    10    53 1   
    31    11    53 1   
    32    12    31 1   
    33    13    54 1   
    34    14    15 ar  
    35    14    16 1   
    36    15    29 1   
    37    16    17 2   
    38    16    32 1   
    39    17    21 1   
    40    17    29 1   
    41    18    20 1   
    42    18    22 2   
    43    18    30 1   
    44    19    23 2   
    45    19    25 1   
    46    19    30 1   
    47    20    36 1   
    48    21    24 1   
    49    21    26 2   
    50    22    23 1   
    51    24    51 1   
    52    25    31 1   
    53    25    52 1   
    54    27    31 2   
    55    28    31 2   
    56    47    53 1   
    57    48    53 1   
@<TRIPOS>SUBSTRUCTURE
     1 08S         1 TEMP              0 ****  ****    0 ROOT
