@<TRIPOS>MOLECULE
08S
   55    58     1     0     0
SMALL
bcc


@<TRIPOS>ATOM
      1 C1           0.2100    -3.4000     1.3240 c3         1 08S      -0.102100
      2 C2           2.2090    -1.9080     1.2820 c3         1 08S      -0.102100
      3 C3          -3.0540    -1.8610    -4.9240 ca         1 08S      -0.165500
      4 C4          -2.1070    -4.0820    -5.1130 ca         1 08S      -0.165500
      5 C5          -1.8410    -1.3130    -5.3260 ca         1 08S       0.012000
      6 C6          -0.8990    -3.5230    -5.5280 ca         1 08S       0.012000
      7 C7          -6.0880     2.4830     1.8320 ca         1 08S      -0.161000
      8 C8          -5.8110     1.1410     1.9900 ca         1 08S      -0.027000
      9 C9          -4.9590     2.5050    -0.3540 ca         1 08S      -0.162000
     10 C11         -4.5500    -3.2340    -2.6570 c3         1 08S       0.113800
     11 C12         -3.1650    -3.2470    -4.7410 ca         1 08S      -0.063300
     12 C13         -0.7290    -2.1350    -5.5560 ca         1 08S      -0.365500
     13 C14         -5.6630     3.1690     0.6590 ca         1 08S       0.201900
     14 C15         -5.1040     0.4570     0.9830 ca         1 08S      -0.138800
     15 C16         -4.6820     1.1470    -0.1890 ca         1 08S      -0.005100
     16 C17         -4.7090    -0.9240     0.9500 cc         1 08S       0.154200
     17 C18         -4.0260    -1.2350    -0.2250 cd         1 08S      -0.274600
     18 C19          0.7160    -2.0340    -0.6830 cc         1 08S       0.377700
     19 C20          1.0880    -1.9160    -3.0590 cc         1 08S       0.641300
     20 C21          0.7800    -2.0930     0.8050 c3         1 08S      -0.101000
     21 C22         -3.4750    -2.5310    -0.5240 c          1 08S       0.621300
     22 N23         -0.4180    -2.0870    -1.4130 nd         1 08S      -0.394000
     23 N24         -0.2340    -2.0280    -2.7030 nd         1 08S      -0.450000
     24 N25         -3.2690    -2.8410    -1.9960 ny         1 08S      -0.664800
     25 N26          1.5700    -1.8450    -4.3480 nu         1 08S      -0.828800
     26 O27         -3.1470    -3.4380     0.2300 o          1 08S      -0.429100
     27 O28          0.6370    -0.0500    -5.8390 o          1 08S      -0.620300
     28 O29          1.4960    -2.0800    -6.7840 o          1 08S      -0.620300
     29 S31         -3.8560     0.1240    -1.2320 ss         1 08S       0.085500
     30 S32          2.1240    -1.8810    -1.6570 ss         1 08S      -0.117800
     31 S33          0.7860    -1.4370    -5.7660 sy         1 08S       1.520200
     32 F30         -5.9470     4.4800     0.5270 f          1 08S      -0.104900
     33 C10         -4.3650    -3.8090    -4.0660 c3         1 08S      -0.069100
     34 Cl          -5.0740    -1.9860     2.1790 cl         1 08S       0.023600
     35 H11C         0.7840    -4.2700     0.9240 hc         1 08S       0.052033
     36 H12C        -0.8610    -3.5100     1.0290 hc         1 08S       0.052033
     37 H13C         0.2750    -3.4170     2.4390 hc         1 08S       0.052033
     38 H21          0.1550    -1.2430     1.2120 hc         1 08S       0.080700
     39 H21C         2.6260    -0.9380     0.9170 hc         1 08S       0.052033
     40 H22C         2.8600    -2.7410     0.9210 hc         1 08S       0.052033
     41 H23C         2.2340    -1.9030     2.3990 hc         1 08S       0.052033
     42 H3          -3.9240    -1.2100    -4.7490 ha         1 08S       0.150500
     43 H5          -1.7400    -0.2170    -5.4410 ha         1 08S       0.170500
     44 H4          -2.2170    -5.1770    -5.0650 ha         1 08S       0.150500
     45 H6          -0.0610    -4.1830    -5.8140 ha         1 08S       0.170500
     46 H7          -6.6390     3.0440     2.6050 ha         1 08S       0.177000
     47 H8          -6.1340     0.6030     2.8960 ha         1 08S       0.167000
     48 H9          -4.6350     3.0510    -1.2520 ha         1 08S       0.174000
     49 H101        -4.2900    -4.9280    -4.0040 hc         1 08S       0.095200
     50 H102        -5.2930    -3.5700    -4.6560 hc         1 08S       0.095200
     51 H111        -5.2000    -2.3130    -2.6990 hx         1 08S       0.104200
     52 H112        -5.0550    -4.0030    -2.0040 hx         1 08S       0.104200
     53 H25         -2.5900    -3.6110    -2.0780 hn         1 08S       0.474300
     54 H26          2.5410    -2.0770    -4.4110 hn         1 08S       0.468800
     55 H252        -2.8730    -2.0230    -2.4820 hn         1 08S       0.474300
@<TRIPOS>BOND
     1     1    20 1   
     2     1    35 1   
     3     1    36 1   
     4     1    37 1   
     5     2    20 1   
     6     2    39 1   
     7     2    40 1   
     8     2    41 1   
     9     3     5 ar  
    10     3    11 ar  
    11     3    42 1   
    12     4     6 ar  
    13     4    11 ar  
    14     4    44 1   
    15     5    12 ar  
    16     5    43 1   
    17     6    12 ar  
    18     6    45 1   
    19     7     8 ar  
    20     7    13 ar  
    21     7    46 1   
    22     8    14 ar  
    23     8    47 1   
    24     9    13 ar  
    25     9    15 ar  
    26     9    48 1   
    27    10    24 1   
    28    10    33 1   
    29    10    51 1   
    30    10    52 1   
    31    11    33 1   
    32    12    31 1   
    33    13    32 1   
    34    14    15 ar  
    35    14    16 1   
    36    15    29 1   
    37    16    17 2   
    38    16    34 1   
    39    17    21 1   
    40    17    29 1   
    41    18    20 1   
    42    18    22 2   
    43    18    30 1   
    44    19    23 2   
    45    19    25 1   
    46    19    30 1   
    47    20    38 1   
    48    21    24 1   
    49    21    26 2   
    50    22    23 1   
    51    24    53 1   
    52    24    55 1   
    53    25    31 1   
    54    25    54 1   
    55    27    31 2   
    56    28    31 2   
    57    33    49 1   
    58    33    50 1   
@<TRIPOS>SUBSTRUCTURE
     1 08S         1 TEMP              0 ****  ****    0 ROOT
