@<TRIPOS>MOLECULE
molecule
   54    57     1     0     0
SMALL
bcc


@<TRIPOS>ATOM
      1 C1           0.0000     0.0000     0.0000 c3         1 08S      -0.085100
      2 C2           2.0410     0.0000     1.4420 c3         1 08S      -0.085100
      3 C3           0.0320    -6.5760    -4.5060 ca         1 08S      -0.150500
      4 C4          -0.3830    -6.2690    -2.1680 ca         1 08S      -0.150500
      5 C5           1.3600    -6.2480    -4.3130 ca         1 08S      -0.013500
      6 C6           0.9470    -5.9420    -1.9750 ca         1 08S      -0.013500
      7 C7          -9.7110   -12.8610    -4.1860 ca         1 08S      -0.171000
      8 C8          -8.3770   -12.9470    -3.9380 ca         1 08S      -0.045000
      9 C9          -9.5460   -10.4850    -4.4660 ca         1 08S      -0.149000
     10 C11         -2.4720    -8.4530    -3.4790 c3         1 08S       0.120000
     11 C12         -0.8400    -6.5860    -3.4330 ca         1 08S      -0.027300
     12 C13          1.8180    -5.9320    -3.0480 ca         1 08S      -0.316500
     13 C14        -10.3070   -11.6320    -4.4520 ca         1 08S       0.161900
     14 C15         -7.5700   -11.7840    -3.9470 ca         1 08S      -0.108800
     15 C16         -8.1730   -10.5490    -4.2140 ca         1 08S       0.026900
     16 C17         -6.1880   -11.6710    -3.7160 cc         1 08S       0.105200
     17 C18         -5.6910   -10.4310    -3.7900 cd         1 08S      -0.117600
     18 C19          2.0330    -1.2310    -0.7110 cc         1 08S       0.425700
     19 C20          3.0170    -3.0200    -2.1020 cc         1 08S       0.680300
     20 C21          1.5300     0.0000     0.0000 c3         1 08S      -0.087000
     21 C22         -4.2800   -10.0840    -3.5850 c          1 08S       0.698300
     22 N23          1.7930    -2.4560    -0.3720 nd         1 08S      -0.296000
     23 N24          2.2930    -3.3730    -1.0790 nd         1 08S      -0.386000
     24 N25         -3.8800    -8.7990    -3.6820 ns         1 08S      -0.585900
     25 N26          3.6470    -3.8760    -2.9930 nu         1 08S      -0.824800
     26 O27         -3.4700   -10.9540    -3.3290 o          1 08S      -0.576100
     27 O28          3.7980    -5.7850    -1.4370 o          1 08S      -0.610300
     28 O29          4.2300    -6.1050    -3.8780 o          1 08S      -0.610300
     29 S31         -6.9580    -9.2760    -4.1650 ss         1 08S      -0.069500
     30 S32          3.0460    -1.2560    -2.1560 ss         1 08S      -0.338800
     31 S33          3.5130    -5.5150    -2.8030 sy         1 08S       1.416200
     32 Cl          -5.1920   -13.0480    -3.3600 cl         1 08S      -0.045400
     33 H11C        -0.3610    -0.0780    -1.0180 hc         1 08S       0.045700
     34 H12C        -0.3610    -0.8430     0.5770 hc         1 08S       0.045700
     35 H13C        -0.3610     0.9210     0.4410 hc         1 08S       0.045700
     36 H21          1.8910     0.8850    -0.5110 hc         1 08S       0.060700
     37 H21C         3.1210    -0.0790     1.4430 hc         1 08S       0.045700
     38 H22C         1.7460     0.9210     1.9300 hc         1 08S       0.045700
     39 H23C         1.6170    -0.8420     1.9760 hc         1 08S       0.045700
     40 H3          -0.3270    -6.8240    -5.4980 ha         1 08S       0.140000
     41 H5           2.0440    -6.2400    -5.1540 ha         1 08S       0.162500
     42 H4          -1.0660    -6.2770    -1.3270 ha         1 08S       0.140000
     43 H6           1.3050    -5.6930    -0.9830 ha         1 08S       0.162500
     44 H7         -10.3160   -13.7600    -4.1760 ha         1 08S       0.153000
     45 H8          -7.9290   -13.9110    -3.7330 ha         1 08S       0.153000
     46 H9         -10.0130    -9.5300    -4.6740 ha         1 08S       0.154000
     47 H101        -2.5930    -6.6490    -4.6410 hc         1 08S       0.056700
     48 H102        -2.8980    -6.4240    -2.9130 hc         1 08S       0.056700
     49 H111        -2.1690    -8.7470    -2.4810 h1         1 08S       0.062200
     50 H112        -1.8630    -8.9720    -4.2090 h1         1 08S       0.062200
     51 H25         -4.5460    -8.0830    -3.8940 hn         1 08S       0.312500
     52 H26          4.2000    -3.5030    -3.7400 hn         1 08S       0.476800
     53 C10         -2.2890    -6.9430    -3.6430 c3         1 08S      -0.063100
     54 F30        -11.6340   -11.5650    -4.6970 f          1 08S      -0.131900
@<TRIPOS>BOND
     1     1    20 1   
     2     2    20 1   
     3     3     5 ar  
     4     3    11 ar  
     5     4     6 ar  
     6     4    11 ar  
     7     5    12 ar  
     8     6    12 ar  
     9     7     8 ar  
    10     7    13 ar  
    11     8    14 ar  
    12     9    13 ar  
    13     9    15 ar  
    14    53    10 1   
    15    53    11 1   
    16    10    24 1   
    17    12    31 1   
    18    13    54 1   
    19    14    15 ar  
    20    14    16 1   
    21    15    29 1   
    22    16    17 2   
    23    16    32 1   
    24    17    21 1   
    25    17    29 1   
    26    18    20 1   
    27    18    22 2   
    28    18    30 1   
    29    19    23 2   
    30    19    25 1   
    31    19    30 1   
    32    21    24 1   
    33    21    26 2   
    34    22    23 1   
    35    25    31 1   
    36    27    31 2   
    37    28    31 2   
    38     1    33 1   
    39     1    34 1   
    40     1    35 1   
    41    20    36 1   
    42     2    37 1   
    43     2    38 1   
    44     2    39 1   
    45     3    40 1   
    46     5    41 1   
    47     4    42 1   
    48     6    43 1   
    49     7    44 1   
    50     8    45 1   
    51     9    46 1   
    52    53    47 1   
    53    53    48 1   
    54    10    49 1   
    55    10    50 1   
    56    24    51 1   
    57    25    52 1   
@<TRIPOS>SUBSTRUCTURE
     1 08S         1 TEMP              0 ****  ****    0 ROOT
