@<TRIPOS>MOLECULE
08W
   43    45     1     0     0
SMALL
bcc


@<TRIPOS>ATOM
      1 O37          0.0000     0.0000     0.0000 o          1 08W      -0.661100
      2 C36          1.2170     0.0000     0.0000 c          1 08W       0.521600
      3 N38          1.8910     0.0000     1.1670 ns         1 08W      -0.178900
      4 C40          1.1580     0.0000     2.4350 c3         1 08W       0.084300
      5 C33          1.9530    -0.0050    -1.2760 cc         1 08W       0.243800
      6 N32          3.3020    -0.0060    -1.4230 nc         1 08W      -0.595000
      7 C30          3.5910    -0.0130    -2.6920 cd         1 08W       0.228400
      8 C34          1.4010    -0.0170    -2.5240 cd         1 08W      -0.376600
      9 N29          2.4350    -0.0170    -3.4100 na         1 08W       0.377000
     10 C6           2.3280    -0.0260    -4.8090 ca         1 08W      -0.160200
     11 C7           2.9380    -1.0310    -5.5410 ca         1 08W       0.019000
     12 C9           2.8250    -1.0320    -6.9280 ca         1 08W      -0.175600
     13 C17          3.4550    -2.0780    -7.7550 c          1 08W       0.621100
     14 O18          4.0950    -2.9770    -7.2440 o          1 08W      -0.577500
     15 N16          3.3030    -2.0120    -9.0960 n          1 08W       0.037200
     16 N19          3.8920    -2.9940    -9.9030 nu         1 08W      -0.420100
     17 S21          3.0480    -4.3680   -10.2840 s6         1 08W       0.957900
     18 O23          2.6890    -4.9190    -9.0240 o          1 08W      -0.561300
     19 C24          1.5780    -3.7680   -11.1590 c3         1 08W       0.011700
     20 O22          3.9060    -5.0700   -11.1720 o          1 08W      -0.561300
     21 C15          2.5990    -1.0240    -9.6700 c          1 08W       0.582500
     22 O28          2.4930    -1.0130   -10.8810 o          1 08W      -0.700500
     23 N13          2.0050    -0.0470    -8.9620 ns         1 08W       0.013900
     24 C10          2.0990    -0.0190    -7.5780 ca         1 08W      -0.057400
     25 C11          1.4930     0.9800    -6.8300 ca         1 08W      -0.093000
     26 C5           1.6050     0.9730    -5.4560 ca         1 08W      -0.132300
     27 C2           0.9460     2.0600    -4.6460 c3         1 08W       0.640200
     28 F1           0.4200     3.0290    -5.5080 f          1 08W      -0.196967
     29 F3          -0.0860     1.5100    -3.8790 f          1 08W      -0.196967
     30 F4           1.8910     2.6510    -3.8020 f          1 08W      -0.196967
     31 H1           2.8920     0.0250     1.1670 hn         1 08W       0.186500
     32 H2           1.8620    -0.0020     3.2590 h1         1 08W       0.008033
     33 H3           0.5370     0.8860     2.4940 h1         1 08W       0.008033
     34 H4           0.5340    -0.8830     2.4920 h1         1 08W       0.008033
     35 H5           4.5910    -0.0140    -3.1100 h5         1 08W       0.029100
     36 H6           0.3450    -0.0190    -2.7630 h4         1 08W       0.193000
     37 H7           3.3800    -1.8790    -5.0320 ha         1 08W       0.150000
     38 H8           4.8320    -2.8790   -10.2250 hn         1 08W       0.368800
     39 H9           1.8760    -3.0660   -11.9280 h1         1 08W       0.071033
     40 H10          1.0620    -4.6050   -11.6150 h1         1 08W       0.071033
     41 H11          0.9160    -3.2750   -10.4570 h1         1 08W       0.071033
     42 H12          1.4910     0.6670    -9.4390 hn         1 08W       0.200500
     43 H13          0.9280     1.7610    -7.3250 ha         1 08W       0.139000
@<TRIPOS>BOND
     1     1     2 2   
     2     2     3 1   
     3     2     5 1   
     4     3     4 1   
     5     3    31 1   
     6     4    32 1   
     7     4    33 1   
     8     4    34 1   
     9     5     6 1   
    10     5     8 2   
    11     6     7 2   
    12     7     9 1   
    13     7    35 1   
    14     8     9 1   
    15     8    36 1   
    16     9    10 1   
    17    10    11 ar  
    18    10    26 ar  
    19    11    12 ar  
    20    11    37 1   
    21    12    13 1   
    22    12    24 ar  
    23    13    14 2   
    24    13    15 1   
    25    15    16 1   
    26    15    21 1   
    27    16    17 1   
    28    16    38 1   
    29    17    18 2   
    30    17    19 1   
    31    17    20 2   
    32    19    39 1   
    33    19    40 1   
    34    19    41 1   
    35    21    22 2   
    36    21    23 1   
    37    23    24 1   
    38    23    42 1   
    39    24    25 ar  
    40    25    26 ar  
    41    25    43 1   
    42    26    27 1   
    43    27    28 1   
    44    27    29 1   
    45    27    30 1   
@<TRIPOS>SUBSTRUCTURE
     1 08W         1 TEMP              0 ****  ****    0 ROOT
