@<TRIPOS>MOLECULE
molecule
   45    47     1     0     0
SMALL
bcc


@<TRIPOS>ATOM
      1 O37          0.0000     0.0000     0.0000 o          1 08W      -0.419100
      2 C36          1.2310     0.0000     0.0000 c          1 08W       0.499600
      3 N38          1.9490     0.0000     1.1520 ny         1 08W      -0.656800
      4 C40          1.2960    -0.0450     2.4640 c3         1 08W       0.081100
      5 C33          1.9370     0.0420    -1.3070 cc         1 08W       0.153800
      6 N32          1.5370    -0.5730    -2.5440 nc         1 08W      -0.652000
      7 C30          2.3730    -0.3190    -3.4650 cd         1 08W       0.472400
      8 C34          3.0880     0.6600    -1.6920 cd         1 08W      -0.053600
      9 N29          3.3380     0.4080    -2.9680 na         1 08W      -0.154000
     10 C6           4.3870     0.9820    -3.6180 ca         1 08W      -0.040200
     11 C7           4.0280     2.1070    -4.3660 ca         1 08W      -0.009000
     12 C9           4.9920     2.8170    -5.0880 ca         1 08W      -0.190600
     13 C17          4.6650     4.0250    -5.9100 c          1 08W       0.761100
     14 O18          3.5050     4.4060    -5.9550 o          1 08W      -0.628500
     15 N16          5.6620     4.6570    -6.5740 n          1 08W      -0.422800
     16 N19          5.2850     5.8040    -7.3690 ny         1 08W      -0.401900
     17 S21          4.9730     5.4770    -8.9800 s6         1 08W       1.504900
     18 O23          5.8360     4.4590    -9.5520 o          1 08W      -0.513800
     19 C24          3.3420     4.6810    -9.0150 c3         1 08W      -0.540300
     20 O22          4.8790     6.6890    -9.7710 o          1 08W      -0.513800
     21 C15          6.9650     4.2450    -6.5320 c          1 08W       0.811500
     22 O28          7.8390     4.8430    -7.1390 o          1 08W      -0.560500
     23 N13          7.2980     3.1610    -5.8030 ns         1 08W      -0.427100
     24 C10          6.3270     2.4240    -5.0660 ca         1 08W       0.153600
     25 C11          6.6960     1.3040    -4.3190 ca         1 08W      -0.127000
     26 C5           5.7370     0.5790    -3.5780 ca         1 08W      -0.070300
     27 C2           6.1430    -0.6670    -2.7880 c3         1 08W       0.688200
     28 F1           5.7320    -0.5760    -1.5160 f          1 08W      -0.212300
     29 F3           5.5810    -1.7910    -3.3460 f          1 08W      -0.212300
     30 F4           7.4940    -0.8160    -2.7920 f          1 08W      -0.212300
     31 H1           2.5560    -0.7950     1.1090 hn         1 08W       0.471800
     32 H2           0.6990    -0.9470     2.5390 hx         1 08W       0.115367
     33 H3           2.0480    -0.0450     3.2430 hx         1 08W       0.115367
     34 H4           0.6560     0.8210     2.5790 hx         1 08W       0.115367
     35 H5           2.3090    -0.6690    -4.4880 h5         1 08W       0.103100
     36 H6           3.7260     1.2430    -1.0390 h4         1 08W       0.231000
     37 H7           3.0030     2.4570    -4.3830 ha         1 08W       0.189000
     38 H8           6.0250     6.4760    -7.3220 hn         1 08W       0.429300
     39 H9           2.9980     4.6070   -10.0400 h1         1 08W       0.210367
     40 H10          3.4150     3.6890    -8.5860 h1         1 08W       0.210367
     41 H11          2.6400     5.2730    -8.4400 h1         1 08W       0.210367
     42 H12          8.2540     2.8660    -5.7790 hn         1 08W       0.392500
     43 H13          7.7480     1.0460    -4.3050 ha         1 08W       0.199000
     44 H382         2.5100     0.8290     1.1370 hn         1 08W       0.471800
     45 H192         4.4730     6.2190    -6.9560 hn         1 08W       0.429300
@<TRIPOS>BOND
     1    20    17 2   
     2    22    21 2   
     3    16    17 1   
     4    16    15 1   
     5    17    18 2   
     6    17    19 1   
     7    21    15 1   
     8    21    23 1   
     9    15    13 1   
    10    23    24 1   
    11    13    14 2   
    12    13    12 1   
    13    24    12 ar  
    14    24    25 ar  
    15    12    11 ar  
    16    25    26 ar  
    17    11    10 ar  
    18    26    10 ar  
    19    26    27 1   
    20    10     9 1   
    21    30    27 1   
    22    27    28 1   
    23    27    29 1   
    24     8     9 1   
    25     8     5 2   
    26     9     7 1   
    27     5     2 1   
    28     5     6 1   
    29     7     6 2   
    30     3     2 1   
    31     3     4 1   
    32     2     1 2   
    33     3    31 1   
    34     4    32 1   
    35     4    33 1   
    36     4    34 1   
    37     7    35 1   
    38     8    36 1   
    39    11    37 1   
    40    16    38 1   
    41    19    39 1   
    42    19    40 1   
    43    19    41 1   
    44    23    42 1   
    45    25    43 1   
    46    44     3 1   
    47    45    16 1   
@<TRIPOS>SUBSTRUCTURE
     1 08W         1 TEMP              0 ****  ****    0 ROOT
