@<TRIPOS>MOLECULE
molecule
   43    45     1     0     0
SMALL
bcc


@<TRIPOS>ATOM
      1 O37          0.0000     0.0000     0.0000 o          1 08W      -0.616100
      2 C36          1.2170     0.0000     0.0000 c          1 08W       0.606600
      3 N38          1.8910     0.0000     1.1670 ns         1 08W      -0.572900
      4 C40          1.1580     0.0000     2.4350 c3         1 08W       0.104300
      5 C33          1.9530    -0.0050    -1.2760 cc         1 08W       0.263800
      6 N32          3.3020    -0.0060    -1.4230 nc         1 08W      -0.676000
      7 C30          3.5910    -0.0130    -2.6920 cd         1 08W       0.414400
      8 C34          1.4010    -0.0170    -2.5240 cd         1 08W      -0.193600
      9 N29          2.4350    -0.0170    -3.4100 na         1 08W      -0.135000
     10 C6           2.3280    -0.0260    -4.8090 ca         1 08W      -0.001200
     11 C7           2.9380    -1.0310    -5.5410 ca         1 08W      -0.030000
     12 C9           2.8250    -1.0320    -6.9280 ca         1 08W      -0.166600
     13 C17          3.4550    -2.0780    -7.7550 c          1 08W       0.709100
     14 O18          4.0950    -2.9770    -7.2440 o          1 08W      -0.539500
     15 N16          3.3030    -2.0120    -9.0960 n          1 08W      -0.289800
     16 N19          3.8920    -2.9940    -9.9030 nu         1 08W      -0.633100
     17 S21          3.0480    -4.3680   -10.2840 s6         1 08W       1.318900
     18 O23          2.6890    -4.9190    -9.0240 o          1 08W      -0.603300
     19 C24          1.5780    -3.7680   -11.1590 c3         1 08W      -0.239300
     20 O22          3.9060    -5.0700   -11.1720 o          1 08W      -0.603300
     21 C15          2.5990    -1.0240    -9.6700 c          1 08W       0.809500
     22 O28          2.4930    -1.0130   -10.8810 o          1 08W      -0.639500
     23 N13          2.0050    -0.0470    -8.9620 ns         1 08W      -0.445100
     24 C10          2.0990    -0.0190    -7.5780 ca         1 08W       0.091600
     25 C11          1.4930     0.9800    -6.8300 ca         1 08W      -0.132000
     26 C5           1.6050     0.9730    -5.4560 ca         1 08W      -0.118300
     27 C2           0.9460     2.0600    -4.6460 c3         1 08W       0.676200
     28 F1           0.4200     3.0290    -5.5080 f          1 08W      -0.209967
     29 F3          -0.0860     1.5100    -3.8790 f          1 08W      -0.209967
     30 F4           1.8910     2.6510    -3.8020 f          1 08W      -0.209967
     31 H1           2.8920     0.0250     1.1670 hn         1 08W       0.330500
     32 H2           1.8620    -0.0020     3.2590 h1         1 08W       0.041367
     33 H3           0.5370     0.8860     2.4940 h1         1 08W       0.041367
     34 H4           0.5340    -0.8830     2.4920 h1         1 08W       0.041367
     35 H5           4.5910    -0.0140    -3.1100 h5         1 08W       0.074100
     36 H6           0.3450    -0.0190    -2.7630 h4         1 08W       0.218000
     37 H7           3.3800    -1.8790    -5.0320 ha         1 08W       0.188000
     38 H8           4.8320    -2.8790   -10.2250 hn         1 08W       0.477800
     39 H9           1.8760    -3.0660   -11.9280 h1         1 08W       0.105700
     40 H10          1.0620    -4.6050   -11.6150 h1         1 08W       0.105700
     41 H11          0.9160    -3.2750   -10.4570 h1         1 08W       0.105700
     42 H12          1.4910     0.6670    -9.4390 hn         1 08W       0.371500
     43 H13          0.9280     1.7610    -7.3250 ha         1 08W       0.169000
@<TRIPOS>BOND
     1    20    17 2   
     2    22    21 2   
     3    16    17 1   
     4    16    15 1   
     5    17    18 2   
     6    17    19 1   
     7    21    15 1   
     8    21    23 1   
     9    15    13 1   
    10    23    24 1   
    11    13    14 2   
    12    13    12 1   
    13    24    12 ar  
    14    24    25 ar  
    15    12    11 ar  
    16    25    26 ar  
    17    11    10 ar  
    18    26    10 ar  
    19    26    27 1   
    20    10     9 1   
    21    30    27 1   
    22    27    28 1   
    23    27    29 1   
    24     8     9 1   
    25     8     5 2   
    26     9     7 1   
    27     5     2 1   
    28     5     6 1   
    29     7     6 2   
    30     3     2 1   
    31     3     4 1   
    32     2     1 2   
    33     3    31 1   
    34     4    32 1   
    35     4    33 1   
    36     4    34 1   
    37     7    35 1   
    38     8    36 1   
    39    11    37 1   
    40    16    38 1   
    41    19    39 1   
    42    19    40 1   
    43    19    41 1   
    44    23    42 1   
    45    25    43 1   
@<TRIPOS>SUBSTRUCTURE
     1 08W         1 TEMP              0 ****  ****    0 ROOT
