@<TRIPOS>MOLECULE
08Z
   38    40     1     0     0
SMALL
bcc


@<TRIPOS>ATOM
      1 C1          -0.0090    -0.9780     1.0040 ca         1 08Z       0.273600
      2 N2          -0.9570    -1.8420     0.4920 nu         1 08Z      -0.696300
      3 C3          -2.1880    -1.4340    -0.0490 cc         1 08Z       0.592300
      4 N4          -2.4060    -0.2490    -0.6570 nd         1 08Z      -0.728000
      5 C5          -3.7550    -0.1890    -1.0710 cd         1 08Z       0.696200
      6 C6          -4.4980    -1.3690    -0.7750 cc         1 08Z      -0.407000
      7 S7          -3.5510    -2.4760     0.0520 ss         1 08Z       0.021700
      8 N8          -4.2730     0.9330    -1.6510 nv         1 08Z      -0.922500
      9 C9          -5.8670    -1.6140    -1.1870 c          1 08Z       0.645300
     10 C10         -6.4560    -2.9150    -0.8070 ca         1 08Z      -0.290900
     11 C11         -6.2360    -3.5170     0.4390 ca         1 08Z      -0.077000
     12 C12         -6.8390    -4.7440     0.7120 ca         1 08Z      -0.250300
     13 C13         -7.6510    -5.3300    -0.2780 ca         1 08Z       0.425200
     14 N14         -7.8840    -4.7630    -1.4770 nb         1 08Z      -0.656000
     15 C15         -7.3040    -3.5760    -1.7270 ca         1 08Z       0.453200
     16 O16         -6.5140    -0.7960    -1.8610 o          1 08Z      -0.552100
     17 C17          1.3440    -1.4130     1.1130 ca         1 08Z      -0.189000
     18 C18          2.3020    -0.6070     1.6920 ca         1 08Z      -0.015500
     19 C19          1.9680     0.6740     2.1890 ca         1 08Z      -0.276600
     20 C20          0.6300     1.1070     2.0970 ca         1 08Z      -0.015500
     21 C21         -0.3380     0.3090     1.5250 ca         1 08Z      -0.189000
     22 C22          3.0430     1.4460     2.7600 c          1 08Z       0.584700
     23 O23          4.2210     1.1610     2.9350 o          1 08Z      -0.443100
     24 N24          2.7050     2.8610     3.2310 nz         1 08Z      -0.764400
     25 HN2         -0.6190    -2.7130     0.1290 hn         1 08Z       0.460800
     26 HN8         -5.1900     0.8620    -2.0400 hn         1 08Z       0.456800
     27 HN8A        -3.6590     1.6260    -2.0070 hn         1 08Z       0.456800
     28 H11         -5.6230    -3.0200     1.2090 ha         1 08Z       0.140000
     29 H12         -6.6970    -5.2420     1.6800 ha         1 08Z       0.153000
     30 H13         -8.1480    -6.3030    -0.1020 h4         1 08Z       0.036100
     31 H15         -7.5240    -3.1150    -2.7090 h4         1 08Z       0.047100
     32 H17          1.6410    -2.4050     0.7310 ha         1 08Z       0.174000
     33 H18          3.3480    -0.9580     1.7630 ha         1 08Z       0.146000
     34 H20          0.3160     2.0890     2.4830 ha         1 08Z       0.146000
     35 H21         -1.3760     0.6790     1.4780 ha         1 08Z       0.174000
     36 HN24         2.0060     2.8210     3.9760 hn         1 08Z       0.463467
     37 HN2A         2.3300     3.4050     2.4500 hn         1 08Z       0.463467
     38 H243         3.5540     3.3150     3.5870 hn         1 08Z       0.463467
@<TRIPOS>BOND
     1     1     2 1   
     2     1    17 ar  
     3     1    21 ar  
     4     2     3 1   
     5     2    25 1   
     6     3     4 2   
     7     3     7 1   
     8     4     5 1   
     9     5     6 2   
    10     5     8 1   
    11     6     7 1   
    12     6     9 1   
    13     8    26 1   
    14     8    27 1   
    15     9    10 1   
    16     9    16 2   
    17    10    11 ar  
    18    10    15 ar  
    19    11    12 ar  
    20    11    28 1   
    21    12    13 ar  
    22    12    29 1   
    23    13    14 ar  
    24    13    30 1   
    25    14    15 ar  
    26    15    31 1   
    27    17    18 ar  
    28    17    32 1   
    29    18    19 ar  
    30    18    33 1   
    31    19    20 ar  
    32    19    22 1   
    33    20    21 ar  
    34    20    34 1   
    35    21    35 1   
    36    22    23 2   
    37    22    24 1   
    38    24    36 1   
    39    24    37 1   
    40    24    38 1   
@<TRIPOS>SUBSTRUCTURE
     1 08Z         1 TEMP              0 ****  ****    0 ROOT
