@<TRIPOS>MOLECULE
08Z
   38    40     1     0     0
SMALL
bcc


@<TRIPOS>ATOM
      1 C1           0.0000     0.0000     0.0000 ca         1 08Z       0.086600
      2 N2          -0.6950    -0.0000    -1.2060 nu         1 08Z      -0.230300
      3 C3          -1.9220    -0.6220    -1.2940 cc         1 08Z       0.514300
      4 N4          -2.4830    -1.2880    -0.3270 nd         1 08Z      -0.675000
      5 C5          -3.6570    -1.8250    -0.5680 cd         1 08Z       0.557200
      6 C6          -4.1220    -1.5870    -1.8490 cc         1 08Z      -0.252000
      7 S7          -2.9150    -0.6160    -2.6850 ss         1 08Z      -0.229300
      8 N8          -4.3630    -2.5580     0.3720 nv         1 08Z      -0.558500
      9 C9          -5.3430    -2.0360    -2.3840 c          1 08Z       0.695300
     10 C10         -5.7860    -1.5640    -3.7160 ca         1 08Z      -0.305900
     11 C11         -5.3650    -0.3230    -4.2060 ca         1 08Z      -0.063000
     12 C12         -5.8070     0.0730    -5.4560 ca         1 08Z      -0.226300
     13 C13         -6.6420    -0.7620    -6.1750 ca         1 08Z       0.439200
     14 N14         -7.0230    -1.9280    -5.6870 nb         1 08Z      -0.581000
     15 C15         -6.6250    -2.3510    -4.5060 ca         1 08Z       0.472200
     16 O16         -6.0370    -2.8150    -1.7530 o          1 08Z      -0.556100
     17 C17          1.3920     0.0000     0.0000 ca         1 08Z      -0.135000
     18 C18          2.0820     0.0000     1.1910 ca         1 08Z       0.003000
     19 C19          1.3830     0.0000     2.4010 ca         1 08Z      -0.284600
     20 C20         -0.0140     0.0000     2.3980 ca         1 08Z       0.003000
     21 C21         -0.6990     0.0050     1.2040 ca         1 08Z      -0.135000
     22 C22          2.1200    -0.0010     3.6800 c          1 08Z       0.357700
     23 O23          3.3360    -0.0010     3.6810 o          1 08Z      -0.449100
     24 N24          1.4460    -0.0000     4.8460 nz         1 08Z       0.201600
     25 HN2         -0.2900     0.4240    -2.0170 hn         1 08Z       0.304800
     26 HN8         -5.2390    -2.2190     0.7170 hn         1 08Z       0.286300
     27 HN8A        -3.9890    -3.4200     0.7180 hn         1 08Z       0.286300
     28 H11         -4.7100     0.3120    -3.6210 ha         1 08Z       0.125000
     29 H12         -5.5020     1.0280    -5.8680 ha         1 08Z       0.118000
     30 H13         -6.9920    -0.4540    -7.1530 h4         1 08Z      -0.013900
     31 H15         -6.9590    -3.3140    -4.1400 h4         1 08Z      -0.000900
     32 H17          1.9330    -0.0000    -0.9390 ha         1 08Z       0.148500
     33 H18          3.1660    -0.0000     1.1900 ha         1 08Z       0.105500
     34 H20         -0.5590     0.0020     3.3350 ha         1 08Z       0.105500
     35 H21         -1.7820     0.0050     1.2010 ha         1 08Z       0.148500
     36 HN24         0.8710     0.8170     4.8990 hn         1 08Z       0.244467
     37 HN2A         2.0960    -0.0000     5.6070 hn         1 08Z       0.244467
     38 H243         0.8700    -0.8170     4.9000 hn         1 08Z       0.244467
@<TRIPOS>BOND
     1     1     2 1   
     2     1    17 ar  
     3     1    21 ar  
     4     2     3 1   
     5     2    25 1   
     6     3     4 2   
     7     3     7 1   
     8     4     5 1   
     9     5     6 2   
    10     5     8 1   
    11     6     7 1   
    12     6     9 1   
    13     8    26 1   
    14     8    27 1   
    15     9    10 1   
    16     9    16 2   
    17    10    11 ar  
    18    10    15 ar  
    19    11    12 ar  
    20    11    28 1   
    21    12    13 ar  
    22    12    29 1   
    23    13    14 ar  
    24    13    30 1   
    25    14    15 ar  
    26    15    31 1   
    27    17    18 ar  
    28    17    32 1   
    29    18    19 ar  
    30    18    33 1   
    31    19    20 ar  
    32    19    22 1   
    33    20    21 ar  
    34    20    34 1   
    35    21    35 1   
    36    22    23 2   
    37    22    24 1   
    38    24    36 1   
    39    24    37 1   
    40    24    38 1   
@<TRIPOS>SUBSTRUCTURE
     1 08Z         1 TEMP              0 ****  ****    0 ROOT
