@<TRIPOS>MOLECULE
090
   42    45     1     0     0
SMALL
bcc


@<TRIPOS>ATOM
      1 OAU          2.9070    -1.1570    -0.9130 o          1 090      -0.572100
      2 CAO          2.4100    -0.2360    -0.2440 c          1 090       0.697700
      3 CAP          2.6560    -0.0570     1.2010 ca         1 090      -0.297900
      4 CAQ          2.6550     1.2050     1.8340 ca         1 090       0.438200
      5 NAR          2.8930     1.3660     3.1470 nb         1 090      -0.654000
      6 CAX          3.1420     0.2630     3.8810 ca         1 090       0.444200
      7 CAW          3.1760    -1.0370     3.3380 ca         1 090      -0.246300
      8 CAV          2.9330    -1.1960     1.9760 ca         1 090      -0.026000
      9 NAN          1.5870     0.7240    -0.8720 ns         1 090      -0.476500
     10 CAM          1.0760     0.5540    -2.1810 cc         1 090       0.499100
     11 NAL         -0.2280     0.6290    -2.4170 nc         1 090      -0.341300
     12 CAK         -0.7290     0.5670    -3.7150 ca         1 090       0.060000
     13 CAJ         -2.1230     0.7150    -3.9460 ca         1 090       0.108100
     14 OAT         -2.9390     1.0960    -2.9060 os         1 090      -0.302900
     15 CAZ         -3.9000     0.1130    -2.5000 c3         1 090       0.112700
     16 CAE          0.1260     0.3530    -4.8490 ca         1 090      -0.141000
     17 CAF          1.5280     0.2440    -4.5630 cc         1 090       0.114400
     18 NAG          2.0170     0.3550    -3.2510 na         1 090      -0.089200
     19 CAH          3.4180     0.2160    -3.2860 cc         1 090      -0.077300
     20 CAB          3.7800     0.0250    -4.6200 cd         1 090      -0.112300
     21 NAA          2.6090     0.0460    -5.3990 na         1 090      -0.162100
     22 CAD         -0.4020     0.2610    -6.1460 ca         1 090      -0.055000
     23 CAC         -1.7620     0.3780    -6.3540 ca         1 090      -0.174000
     24 CAI         -2.6270     0.6060    -5.2640 ca         1 090       0.166100
     25 OAS         -3.9840     0.7290    -5.3780 os         1 090      -0.296900
     26 CAY         -4.5340     0.7040    -6.6990 c3         1 090       0.102700
     27 HAQ          2.4790     2.1430     1.2750 h4         1 090       0.029100
     28 HAX          3.3270     0.4360     4.9590 h4         1 090       0.047100
     29 HAW          3.3930    -1.9020     3.9800 ha         1 090       0.168000
     30 HAV          2.9590    -2.1920     1.5040 ha         1 090       0.167000
     31 HAN          1.0160     1.2980    -0.2780 hn         1 090       0.362500
     32 HAZ1        -3.3810    -0.8040    -2.1330 h1         1 090       0.057700
     33 HAZ2        -4.5910    -0.1290    -3.3430 h1         1 090       0.057700
     34 HAZ3        -4.4460     0.6270    -1.6690 h1         1 090       0.057700
     35 HAH          4.0320     0.2270    -2.3770 h4         1 090       0.242000
     36 HAB          4.7690    -0.1220    -5.0660 h4         1 090       0.230000
     37 HAA          2.5570    -0.0760    -6.3830 hn         1 090       0.351700
     38 HAD          0.2650     0.0940    -7.0070 ha         1 090       0.146000
     39 HAC         -2.1670     0.3010    -7.3750 ha         1 090       0.170000
     40 HAY1        -5.6280     0.8620    -6.5130 h1         1 090       0.065367
     41 HAY2        -4.1120     1.5330    -7.3150 h1         1 090       0.065367
     42 HAY3        -4.3510    -0.2890    -7.1770 h1         1 090       0.065367
@<TRIPOS>BOND
     1     1     2 2   
     2     2     3 1   
     3     2     9 1   
     4     3     4 ar  
     5     3     8 ar  
     6     4     5 ar  
     7     4    27 1   
     8     5     6 ar  
     9     6     7 ar  
    10     6    28 1   
    11     7     8 ar  
    12     7    29 1   
    13     8    30 1   
    14     9    10 2   
    15     9    31 1   
    16    10    11 1   
    17    10    18 1   
    18    11    12 2   
    19    12    13 ar  
    20    12    16 ar  
    21    13    14 1   
    22    13    24 ar  
    23    14    15 1   
    24    15    32 1   
    25    15    33 1   
    26    15    34 1   
    27    16    17 2   
    28    16    22 ar  
    29    17    18 1   
    30    17    21 1   
    31    18    19 1   
    32    19    20 2   
    33    19    35 1   
    34    20    21 1   
    35    20    36 1   
    36    21    37 1   
    37    22    23 ar  
    38    22    38 1   
    39    23    24 ar  
    40    23    39 1   
    41    24    25 1   
    42    25    26 1   
    43    26    40 1   
    44    26    41 1   
    45    26    42 1   
@<TRIPOS>SUBSTRUCTURE
     1 090         1 TEMP              0 ****  ****    0 ROOT
