@<TRIPOS>MOLECULE
molecule
   42    45     1     0     0
SMALL
bcc


@<TRIPOS>ATOM
      1 OAU          0.0000     0.0000     0.0000 o          1 090      -0.474100
      2 CAO          1.2290     0.0000     0.0000 c          1 090       0.702700
      3 CAP          1.9870     0.0000     1.2640 ca         1 090      -0.281900
      4 CAQ          3.2360     0.5720     1.3230 ca         1 090       0.416200
      5 NAR          3.9850     0.6060     2.4490 nb         1 090      -0.641000
      6 CAX          3.4400     0.0380     3.5490 ca         1 090       0.436200
      7 CAW          2.1900    -0.5580     3.5760 ca         1 090      -0.236300
      8 CAV          1.4500    -0.5730     2.3980 ca         1 090      -0.024000
      9 NAN          2.0160     0.0390    -1.1680 ns         1 090      -0.472500
     10 CAM          1.5930     0.0830    -2.4980 cc         1 090       0.237000
     11 NAL          0.2770     0.0940    -2.7850 nc         1 090      -0.086000
     12 CAK         -0.1040     0.1360    -4.0760 ca         1 090       0.042000
     13 CAJ         -1.4620     0.1470    -4.3760 ca         1 090       0.121100
     14 OAT         -2.3770     0.1120    -3.3570 os         1 090      -0.322900
     15 CAZ         -2.8060    -1.1740    -2.9260 c3         1 090       0.139700
     16 CAE          0.7940     0.1740    -5.1760 ca         1 090      -0.145000
     17 CAF          2.1790     0.1640    -4.8690 cc         1 090       0.100500
     18 NAG          2.5600     0.1210    -3.6010 na         1 090      -0.002500
     19 CAH          3.9350     0.1190    -3.5580 cc         1 090      -0.199200
     20 CAB          4.3970     0.1640    -4.8660 cd         1 090      -0.097200
     21 NAA          3.2880     0.1910    -5.7010 na         1 090      -0.124300
     22 CAD          0.3330     0.2180    -6.5080 ca         1 090      -0.079000
     23 CAC         -1.0350     0.2270    -6.7580 ca         1 090      -0.122000
     24 CAI         -1.9300     0.1920    -5.6940 ca         1 090       0.168100
     25 OAS         -3.2690     0.2010    -5.9510 os         1 090      -0.339900
     26 CAY         -3.9040     1.4750    -6.0300 c3         1 090       0.140700
     27 HAQ          3.6410     1.0180     0.4230 h4         1 090       0.003100
     28 HAX          4.0170     0.0500     4.4650 h4         1 090       0.040100
     29 HAW          1.8010    -0.9980     4.4860 ha         1 090       0.168000
     30 HAV          0.4670    -1.0280     2.3720 ha         1 090       0.167000
     31 HAN          3.0070     0.0340    -1.0250 hn         1 090       0.332500
     32 HAZ1        -2.8200    -1.2060    -1.8430 h1         1 090       0.048367
     33 HAZ2        -2.1230    -1.9270    -3.3000 h1         1 090       0.048367
     34 HAZ3        -3.8020    -1.3690    -3.3050 h1         1 090       0.048367
     35 HAH          4.5470     0.0890    -2.6650 h4         1 090       0.221000
     36 HAB          5.4290     0.2850    -5.1740 h4         1 090       0.231000
     37 HAA          3.2890     0.2260    -6.7010 hn         1 090       0.363700
     38 HAD          1.0380     0.2460    -7.3290 ha         1 090       0.143000
     39 HAC         -1.4010     0.2620    -7.7770 ha         1 090       0.175000
     40 HAY1        -4.8350     1.4500    -5.4770 h1         1 090       0.052033
     41 HAY2        -4.1060     1.7140    -7.0670 h1         1 090       0.052033
     42 HAY3        -3.2520     2.2300    -5.6060 h1         1 090       0.052033
@<TRIPOS>BOND
     1     1     2 2
     2     2     3 1
     3     2     9 1
     4     3     4 ar
     5     3     8 ar
     6     4     5 ar
     7     4    27 1
     8     5     6 ar
     9     6     7 ar
    10     6    28 1
    11     7     8 ar
    12     7    29 1
    13     8    30 1
    14     9    10 2
    15     9    31 1
    16    10    11 1
    17    10    18 1
    18    11    12 2
    19    12    13 ar
    20    12    16 ar
    21    13    14 1
    22    13    24 ar
    23    14    15 1
    24    15    32 1
    25    15    33 1
    26    15    34 1
    27    16    17 2
    28    16    22 ar
    29    17    18 1
    30    17    21 1
    31    18    19 1
    32    19    20 2
    33    19    35 1
    34    20    21 1
    35    20    36 1
    36    21    37 1
    37    22    23 ar
    38    22    38 1
    39    23    24 ar
    40    23    39 1
    41    24    25 1
    42    25    26 1
    43    26    40 1
    44    26    41 1
    45    26    42 1
@<TRIPOS>SUBSTRUCTURE
     1 090         1 TEMP              0 ****  ****    0 ROOT
