@<TRIPOS>MOLECULE
091
   26    28     1     0     0
SMALL
bcc


@<TRIPOS>ATOM
      1 C1           0.0000     0.0000     0.0000 c3         1 091      -0.098700
      2 C2          -0.5510     1.1930    -0.7280 ca         1 091      -0.145300
      3 C3          -0.5490    -1.1940    -0.7340 c          1 091       0.624500
      4 C4           1.5340     0.0000     0.0000 c3         1 091      -0.005400
      5 C5          -0.4240    -0.0060     1.4740 c3         1 091       0.168800
      6 C6          -1.3280     0.6820    -1.7640 ca         1 091      -0.091400
      7 C7          -0.4250     2.5540    -0.5510 ca         1 091      -0.040000
      8 N1          -1.3060    -0.7140    -1.7390 ns         1 091      -0.020100
      9 O1          -0.3490    -2.3600    -0.4710 o          1 091      -0.622500
     10 C8           1.9260     0.0000     1.4950 c3         1 091       0.142800
     11 N2           0.7470    -0.5760     2.1930 n7         1 091      -0.568200
     12 C9          -1.9760     1.5670    -2.6220 ca         1 091      -0.122000
     13 C10         -1.0720     3.4250    -1.4080 ca         1 091      -0.128000
     14 C11         -1.8450     2.9290    -2.4430 ca         1 091      -0.066000
     15 H1           1.9100     0.8910    -0.4870 hc         1 091       0.031200
     16 H2           1.9100    -0.8920    -0.4870 hc         1 091       0.031200
     17 H3          -0.6190     1.0040     1.8140 h1         1 091       0.018700
     18 H4          -1.2950    -0.6350     1.6140 h1         1 091       0.018700
     19 H5           0.1810     2.9400     0.2590 ha         1 091       0.104000
     20 H6          -1.7970    -1.2920    -2.3930 hn         1 091       0.175500
     21 H7           2.7990    -0.6220     1.6550 h1         1 091       0.009700
     22 H8           2.1070     1.0120     1.8370 h1         1 091       0.009700
     23 H9           0.7380    -0.2660     3.1450 hn         1 091       0.250800
     24 H11         -2.5830     1.1860    -3.4340 ha         1 091       0.106000
     25 H12         -0.9720     4.4950    -1.2710 ha         1 091       0.108000
     26 H13         -2.3520     3.6120    -3.1130 ha         1 091       0.104000
@<TRIPOS>BOND
     1     1     2 1   
     2     1     3 1   
     3     1     4 1   
     4     1     5 1   
     5     2     6 ar  
     6     2     7 ar  
     7     3     8 1   
     8     3     9 2   
     9     4    10 1   
    10     4    15 1   
    11     4    16 1   
    12     5    11 1   
    13     5    17 1   
    14     5    18 1   
    15     6     8 1   
    16     6    12 ar  
    17     7    13 ar  
    18     7    19 1   
    19     8    20 1   
    20    10    11 1   
    21    10    21 1   
    22    10    22 1   
    23    11    23 1   
    24    12    14 ar  
    25    12    24 1   
    26    13    14 ar  
    27    13    25 1   
    28    14    26 1   
@<TRIPOS>SUBSTRUCTURE
     1 091         1 TEMP              0 ****  ****    0 ROOT
