@<TRIPOS>MOLECULE
molecule
   26    28     1     0     0
SMALL
bcc


@<TRIPOS>ATOM
      1 C1           0.0000     0.0000     0.0000 c3         1 091      -0.106700
      2 C2          -0.5510     1.1930    -0.7280 ca         1 091      -0.140300
      3 C3          -0.5490    -1.1940    -0.7340 c          1 091       0.723500
      4 C4           1.5340     0.0000     0.0000 c3         1 091      -0.058400
      5 C5          -0.4240    -0.0060     1.4740 c3         1 091       0.166800
      6 C6          -1.3280     0.6820    -1.7640 ca         1 091       0.059600
      7 C7          -0.4250     2.5540    -0.5510 ca         1 091      -0.075000
      8 N1          -1.3060    -0.7140    -1.7390 ns         1 091      -0.468100
      9 O1          -0.3490    -2.3600    -0.4710 o          1 091      -0.581500
     10 C8           1.9260     0.0000     1.4950 c3         1 091       0.137800
     11 N2           0.7470    -0.5760     2.1930 n7         1 091      -0.779200
     12 C9          -1.9760     1.5670    -2.6220 ca         1 091      -0.159000
     13 C10         -1.0720     3.4250    -1.4080 ca         1 091      -0.156000
     14 C11         -1.8450     2.9290    -2.4430 ca         1 091      -0.093000
     15 H1           1.9100     0.8910    -0.4870 hc         1 091       0.062700
     16 H2           1.9100    -0.8920    -0.4870 hc         1 091       0.062700
     17 H3          -0.6190     1.0040     1.8140 h1         1 091       0.050700
     18 H4          -1.2950    -0.6350     1.6140 h1         1 091       0.050700
     19 H5           0.1810     2.9400     0.2590 ha         1 091       0.133000
     20 H6          -1.7970    -1.2920    -2.3930 hn         1 091       0.336500
     21 H7           2.7990    -0.6220     1.6550 h1         1 091       0.041200
     22 H8           2.1070     1.0120     1.8370 h1         1 091       0.041200
     23 H9           0.7380    -0.2660     3.1450 hn         1 091       0.347800
     24 H11         -2.5830     1.1860    -3.4340 ha         1 091       0.133000
     25 H12         -0.9720     4.4950    -1.2710 ha         1 091       0.135000
     26 H13         -2.3520     3.6120    -3.1130 ha         1 091       0.136000
@<TRIPOS>BOND
     1    11    10 1
     2    11     5 1
     3     7    13 ar
     4     7     2 ar
     5    13    14 ar
     6    10     4 1
     7     5     1 1
     8     4     1 1
     9     2     1 1
    10     2     6 ar
    11     1     3 1
    12    14    12 ar
    13     6    12 ar
    14     6     8 1
    15     3     9 2
    16     3     8 1
    17     4    15 1
    18     4    16 1
    19     5    17 1
    20     5    18 1
    21     7    19 1
    22     8    20 1
    23    10    21 1
    24    10    22 1
    25    11    23 1
    26    12    24 1
    27    13    25 1
    28    14    26 1
@<TRIPOS>SUBSTRUCTURE
     1 091         1 TEMP              0 ****  ****    0 ROOT
