@<TRIPOS>MOLECULE
091
   26    28     1     0     0
SMALL
bcc


@<TRIPOS>ATOM
      1 C1           0.0300    -0.0650    -0.0210 c3         1 091      -0.095700
      2 C2          -0.5340     0.7770    -1.1310 ca         1 091      -0.136300
      3 C3          -0.5280    -1.4720    -0.3580 c          1 091       0.703500
      4 C4           1.5600    -0.0790     0.0480 c3         1 091      -0.086400
      5 C5          -0.4370     0.3820     1.3890 c3         1 091       0.166800
      6 C6          -1.3170    -0.0590    -1.9960 ca         1 091       0.060600
      7 C7          -0.4070     2.1240    -1.3960 ca         1 091      -0.073000
      8 N1          -1.3050    -1.3830    -1.5270 ns         1 091      -0.480100
      9 O1          -0.3490    -2.5210     0.2690 o          1 091      -0.604500
     10 C8           1.9130     0.2960     1.5000 c3         1 091       0.144800
     11 N2           0.6950     0.3260     2.3050 n7         1 091      -0.790200
     12 C9          -1.9560     0.4730    -3.1130 ca         1 091      -0.168000
     13 C10         -1.0530     2.6570    -2.5230 ca         1 091      -0.163000
     14 C11         -1.8100     1.8450    -3.3600 ca         1 091      -0.092000
     15 H1           1.9600    -1.0910    -0.2050 hc         1 091       0.063700
     16 H2           1.9940     0.6610    -0.6680 hc         1 091       0.063700
     17 H3          -1.2910    -0.2500     1.7490 h1         1 091       0.063700
     18 H4          -0.7810     1.4520     1.3340 h1         1 091       0.063700
     19 H5           0.1880     2.7730    -0.7370 ha         1 091       0.143000
     20 H6          -1.7740    -2.1340    -1.9610 hn         1 091       0.341500
     21 H7           2.6670    -0.4190     1.9230 h1         1 091       0.052700
     22 H8           2.3610     1.3280     1.5280 h1         1 091       0.052700
     23 H9           0.6380    -0.4990     2.8740 hn         1 091       0.357800
     24 H11         -2.5580    -0.1540    -3.7840 ha         1 091       0.140000
     25 H12         -0.9570     3.7300    -2.7400 ha         1 091       0.136000
     26 H13         -2.3090     2.2810    -4.2390 ha         1 091       0.135000
@<TRIPOS>BOND
     1     1     2 1   
     2     1     3 1   
     3     1     4 1   
     4     1     5 1   
     5     2     6 ar  
     6     2     7 ar  
     7     3     8 1   
     8     3     9 2   
     9     4    10 1   
    10     4    15 1   
    11     4    16 1   
    12     5    11 1   
    13     5    17 1   
    14     5    18 1   
    15     6     8 1   
    16     6    12 ar  
    17     7    13 ar  
    18     7    19 1   
    19     8    20 1   
    20    10    11 1   
    21    10    21 1   
    22    10    22 1   
    23    11    23 1   
    24    12    14 ar  
    25    12    24 1   
    26    13    14 ar  
    27    13    25 1   
    28    14    26 1   
@<TRIPOS>SUBSTRUCTURE
     1 091         1 TEMP              0 ****  ****    0 ROOT
