@<TRIPOS>MOLECULE
molecule
   32    34     1     0     0
SMALL
bcc


@<TRIPOS>ATOM
      1 C5           0.0000     0.0000     0.0000 ca         1 092      -0.153000
      2 C8           1.3830     0.0000     0.0000 ca         1 092      -0.091000
      3 C3          -0.6890     0.0050     1.1990 ca         1 092      -0.075000
      4 C6           2.0790     0.0000     1.1910 ca         1 092      -0.157000
      5 C1           0.0020     0.0110     2.3910 ca         1 092      -0.145300
      6 C17          1.3940     0.0000     2.4030 ca         1 092       0.059600
      7 C14          0.8620     0.0230     4.6170 c          1 092       0.722500
      8 C9          -3.6420     1.5160     4.9770 c          1 092       0.630100
      9 C4          -1.2790     1.2510     4.1580 c3         1 092      -0.044400
     10 C13         -1.2840    -1.2010     4.1730 c3         1 092       0.172800
     11 C7          -2.7220     0.6800     4.1260 c3         1 092       0.106500
     12 C2          -0.4210     0.0170     3.8320 c3         1 092      -0.114700
     13 C18         -5.0190     3.4210     5.3720 c3         1 092       0.140700
     14 N16          1.8650     0.0100     3.7180 ns         1 092      -0.465100
     15 N10         -2.5650    -0.6800     4.7030 n7         1 092      -0.765200
     16 O15          0.9720     0.0350     5.8250 o          1 092      -0.582500
     17 O11         -4.1380     2.6670     4.4980 os         1 092      -0.437900
     18 H1          -0.5430     0.0000    -0.9380 ha         1 092       0.137000
     19 H2           1.9230    -0.0040    -0.9400 ha         1 092       0.137000
     20 H3          -1.7720     0.0050     1.2010 ha         1 092       0.132000
     21 H4           3.1620    -0.0000     1.1830 ha         1 092       0.134000
     22 H5          -1.0410     1.6330     5.1430 hc         1 092       0.077700
     23 H6          -1.1530     2.0150     3.4010 hc         1 092       0.077700
     24 H7          -0.7900    -1.8050     4.9250 h1         1 092       0.058200
     25 H8          -1.4650    -1.7870     3.2790 h1         1 092       0.058200
     26 H9          -3.0840     0.6200     3.1060 h1         1 092       0.050700
     27 H10         -4.4890     3.6820     6.2810 h1         1 092       0.049367
     28 H11         -5.8850     2.8190     5.6200 h1         1 092       0.049367
     29 H12         -5.3390     4.3260     4.8690 h1         1 092       0.049367
     30 H13          2.8350     0.0100     3.9640 hn         1 092       0.339500
     31 H14         -3.3170    -1.2640     4.3930 hn         1 092       0.358800
     32 O12         -3.9330     1.1500     6.0910 o          1 092      -0.510000
@<TRIPOS>BOND
     1    15    11 1
     2    15    10 1
     3     3     1 ar
     4     3     5 ar
     5     1     2 ar
     6    11     9 1
     7    11     8 1
     8    10    12 1
     9     9    12 1
    10     5    12 1
    11     5     6 ar
    12     8    32 2
    13     8    17 1
    14     2     4 ar
    15    12     7 1
    16    17    13 1
    17     6     4 ar
    18     6    14 1
    19     7    14 1
    20     7    16 2
    21     1    18 1
    22     2    19 1
    23     3    20 1
    24     4    21 1
    25     9    22 1
    26     9    23 1
    27    10    24 1
    28    10    25 1
    29    11    26 1
    30    13    27 1
    31    13    28 1
    32    13    29 1
    33    14    30 1
    34    15    31 1
@<TRIPOS>SUBSTRUCTURE
     1 092         1 TEMP              0 ****  ****    0 ROOT
