@<TRIPOS>MOLECULE
092
   32    34     1     0     0
SMALL
bcc


@<TRIPOS>ATOM
      1 C5          -0.2060     0.7040     0.1850 ca         1 092      -0.163000
      2 C8           1.0020     0.1710    -0.2520 ca         1 092      -0.089000
      3 C3          -0.6030     0.5800     1.5240 ca         1 092      -0.076000
      4 C6           1.8620    -0.5040     0.6230 ca         1 092      -0.168000
      5 C1           0.2240    -0.0830     2.4080 ca         1 092      -0.149300
      6 C17          1.4710    -0.6310     1.9540 ca         1 092       0.067600
      7 C14          1.3790    -1.1420     4.1990 c          1 092       0.709500
      8 C9          -1.6980     1.2050     6.6470 c          1 092       0.641100
      9 C4          -0.0750     0.8830     4.7420 c3         1 092      -0.079400
     10 C13         -1.1700    -1.2290     4.2160 c3         1 092       0.168800
     11 C7          -1.5640     0.9140     5.1610 c3         1 092       0.125500
     12 C2           0.0740    -0.3710     3.8770 c3         1 092      -0.092700
     13 C18         -3.2120     1.8450     8.3660 c3         1 092       0.125700
     14 N16          2.1380    -1.2540     3.0190 ns         1 092      -0.482100
     15 N10         -2.1780    -0.3760     4.8300 n7         1 092      -0.791200
     16 O15          1.7290    -1.6060     5.2870 o          1 092      -0.581500
     17 O11         -2.9690     1.5790     6.9840 os         1 092      -0.435900
     18 H1          -0.8610     1.2310    -0.5240 ha         1 092       0.137000
     19 H2           1.2970     0.2800    -1.3080 ha         1 092       0.136000
     20 H3          -1.5590     1.0070     1.8610 ha         1 092       0.133000
     21 H4           2.8130    -0.9180     0.2630 ha         1 092       0.142000
     22 H5           0.1880     1.8060     4.1730 hc         1 092       0.086700
     23 H6           0.5850     0.8120     5.6460 hc         1 092       0.086700
     24 H7          -1.5630    -1.7440     3.3000 h1         1 092       0.072200
     25 H8          -0.8820    -2.0090     4.9760 h1         1 092       0.072200
     26 H9          -2.0900     1.7610     4.6290 h1         1 092       0.066700
     27 H10         -2.5830     2.7040     8.7030 h1         1 092       0.051033
     28 H11         -4.3010     2.0960     8.4000 h1         1 092       0.051033
     29 H12         -2.9810     0.9390     8.9760 h1         1 092       0.051033
     30 H13          3.0230    -1.6850     2.9490 hn         1 092       0.343500
     31 H14         -2.9650    -0.2390     4.2260 hn         1 092       0.368800
     32 O12         -0.8350     1.1870     7.5230 o          1 092      -0.528000
@<TRIPOS>BOND
     1     1     2 ar  
     2     1     3 ar  
     3     1    18 1   
     4     2     4 ar  
     5     2    19 1   
     6     3     5 ar  
     7     3    20 1   
     8     4     6 ar  
     9     4    21 1   
    10     5     6 ar  
    11     5    12 1   
    12     6    14 1   
    13     7    12 1   
    14     7    14 1   
    15     7    16 2   
    16     8    11 1   
    17     8    17 1   
    18     8    32 2   
    19     9    11 1   
    20     9    12 1   
    21     9    22 1   
    22     9    23 1   
    23    10    12 1   
    24    10    15 1   
    25    10    24 1   
    26    10    25 1   
    27    11    15 1   
    28    11    26 1   
    29    13    17 1   
    30    13    27 1   
    31    13    28 1   
    32    13    29 1   
    33    14    30 1   
    34    15    31 1   
@<TRIPOS>SUBSTRUCTURE
     1 092         1 TEMP              0 ****  ****    0 ROOT
