@<TRIPOS>MOLECULE
molecule
   52    56     1     0     0
SMALL
bcc


@<TRIPOS>ATOM
      1 F1           0.0000     0.0000     0.0000 f          1 094      -0.131900
      2 C1           1.3510     0.0000     0.0000 ca         1 094       0.183900
      3 C2           2.0430     0.0000     1.2000 ca         1 094      -0.199000
      4 C3           3.4240    -0.0010     1.2020 ca         1 094      -0.023000
      5 C4           4.1200    -0.0010     0.0010 ca         1 094      -0.068100
      6 S1           5.8820    -0.0010     0.0030 ss         1 094      -0.211200
      7 C5           6.1890     1.6810    -0.4200 ca         1 094       0.504600
      8 C6           7.5070     2.1140    -0.6420 ca         1 094      -0.122100
      9 C7           7.7310     3.4490    -0.9830 ca         1 094      -0.113000
     10 C8           6.6360     4.2970    -1.0760 ca         1 094      -0.038700
     11 N1           6.8040     5.6450    -1.4070 n          1 094      -0.282200
     12 C9           5.7790     6.5020    -1.5090 c          1 094       0.828500
     13 O1           6.0150     7.6580    -1.8030 o          1 094      -0.666500
     14 N2           4.4990     6.1400    -1.3010 ns         1 094      -0.583900
     15 C10          4.1950     4.7460    -0.9450 c3         1 094       0.053700
     16 C11          5.3640     3.7920    -0.8340 ca         1 094       0.393600
     17 N3           5.1770     2.5290    -0.5210 nb         1 094      -0.666000
     18 C12          8.1000     6.1220    -1.6430 ca         1 094       0.064600
     19 C13          8.8570     6.6300    -0.5970 ca         1 094       0.048900
     20 Cl1          8.1980     6.6780     1.0080 cl         1 094      -0.078400
     21 C14         10.1350     7.0990    -0.8340 ca         1 094      -0.121500
     22 C15         10.6620     7.0600    -2.1120 ca         1 094      -0.103000
     23 C16          9.9110     6.5530    -3.1570 ca         1 094      -0.121500
     24 C17          8.6340     6.0790    -2.9260 ca         1 094       0.048900
     25 Cl2          7.6930     5.4430    -4.2380 cl         1 094      -0.078400
     26 C18          8.6350     1.1680    -0.5290 ce         1 094      -0.075400
     27 C19          9.2370     1.0230     0.6340 c2         1 094      -0.146200
     28 C20         10.3940     0.0880     0.8390 c3         1 094       0.184000
     29 N4          10.4280    -0.9310    -0.2160 n7         1 094      -0.793200
     30 C21         10.4510    -0.2100    -1.4960 c3         1 094       0.144800
     31 C22          9.0640     0.3910    -1.7440 c3         1 094      -0.027200
     32 C23          3.4250    -0.0010    -1.2020 ca         1 094       0.216900
     33 F2           4.0990    -0.0020    -2.3720 f          1 094      -0.118900
     34 C24          2.0420    -0.0060    -1.2000 ca         1 094      -0.225000
     35 H2           1.5000    -0.0000     2.1380 ha         1 094       0.152000
     36 H3           3.9640    -0.0010     2.1420 ha         1 094       0.154000
     37 H7           8.7350     3.8160    -1.1610 ha         1 094       0.157000
     38 HN2          3.7630     6.8130    -1.3880 hn         1 094       0.363500
     39 H101         3.6810     4.7530     0.0080 h1         1 094       0.059200
     40 H102         3.5170     4.3540    -1.6940 h1         1 094       0.059200
     41 H14         10.7260     7.4960    -0.0170 ha         1 094       0.152000
     42 H15         11.6630     7.4300    -2.2950 ha         1 094       0.146000
     43 H16         10.3270     6.5220    -4.1570 ha         1 094       0.152000
     44 H19          8.8820     1.6030     1.4780 ha         1 094       0.132000
     45 H201        11.3170     0.6540     0.8160 h1         1 094       0.042700
     46 H202        10.2910    -0.3990     1.8010 h1         1 094       0.042700
     47 HN4         11.2610    -1.4770    -0.1250 hn         1 094       0.352800
     48 H211        11.1870     0.5830    -1.4530 h1         1 094       0.035200
     49 H212        10.6960    -0.8980    -2.2960 h1         1 094       0.035200
     50 H221         9.1060     1.0540    -2.6000 hc         1 094       0.063700
     51 H222         8.3540    -0.4060    -1.9320 hc         1 094       0.063700
     52 H24          1.4990    -0.0060    -2.1370 ha         1 094       0.162000
@<TRIPOS>BOND
     1     1     2 1
     2     2     3 ar
     3     2    34 ar
     4     3     4 ar
     5     3    35 1
     6     4     5 ar
     7     4    36 1
     8     5     6 1
     9     5    32 ar
    10     6     7 1
    11     7     8 ar
    12     7    17 ar
    13     8     9 ar
    14     8    26 1
    15     9    10 ar
    16     9    37 1
    17    10    11 1
    18    10    16 ar
    19    11    12 1
    20    11    18 1
    21    12    13 2
    22    12    14 1
    23    14    15 1
    24    14    38 1
    25    15    16 1
    26    15    39 1
    27    15    40 1
    28    16    17 ar
    29    18    19 ar
    30    18    24 ar
    31    19    20 1
    32    19    21 ar
    33    21    22 ar
    34    21    41 1
    35    22    23 ar
    36    22    42 1
    37    23    24 ar
    38    23    43 1
    39    24    25 1
    40    26    27 2
    41    26    31 1
    42    27    28 1
    43    27    44 1
    44    28    29 1
    45    28    45 1
    46    28    46 1
    47    29    30 1
    48    29    47 1
    49    30    31 1
    50    30    48 1
    51    30    49 1
    52    31    50 1
    53    31    51 1
    54    32    33 1
    55    32    34 ar
    56    34    52 1
@<TRIPOS>SUBSTRUCTURE
     1 094         1 TEMP              0 ****  ****    0 ROOT
