@<TRIPOS>MOLECULE
094
   52    56     1     0     0
SMALL
bcc


@<TRIPOS>ATOM
      1 F1           0.2730    -0.7230     0.7420 f          1 094      -0.131900
      2 C1           1.5840    -0.4610     0.5340 ca         1 094       0.172900
      3 C2           2.4700    -0.4030     1.6280 ca         1 094      -0.192000
      4 C3           3.8090    -0.1190     1.4000 ca         1 094      -0.043000
      5 C4           4.3170     0.0830     0.1090 ca         1 094      -0.101100
      6 S1           6.0040     0.2660     0.0090 ss         1 094      -0.159200
      7 C5           6.3310     1.7160    -0.8420 ca         1 094       0.452600
      8 C6           7.6670     1.9260    -1.2760 ca         1 094      -0.107100
      9 C7           7.9650     3.1170    -1.9440 ca         1 094      -0.120000
     10 C8           6.9510     4.0690    -2.1740 ca         1 094      -0.016700
     11 N1           7.2000     5.2930    -2.8140 n          1 094      -0.290200
     12 C9           6.1260     6.1450    -3.2010 c          1 094       0.817500
     13 O1           6.3440     7.1990    -3.8360 o          1 094      -0.638500
     14 N2           4.8210     5.7630    -2.8910 ns         1 094      -0.555900
     15 C10          4.5130     4.7500    -1.9220 c3         1 094       0.048700
     16 C11          5.6340     3.7550    -1.7100 ca         1 094       0.371600
     17 N3           5.3450     2.6110    -1.0660 nb         1 094      -0.642000
     18 C12          8.5150     5.6210    -3.2400 ca         1 094       0.054600
     19 C13          9.3790     6.3590    -2.3970 ca         1 094       0.039400
     20 Cl1          8.8740     6.8490    -0.8520 cl         1 094      -0.063900
     21 C14         10.6670     6.6990    -2.8180 ca         1 094      -0.127000
     22 C15         11.1140     6.3170    -4.0800 ca         1 094      -0.102000
     23 C16         10.2820     5.5920    -4.9290 ca         1 094      -0.127000
     24 C17          8.9930     5.2440    -4.5180 ca         1 094       0.039400
     25 Cl2          8.0100     4.3600    -5.5820 cl         1 094      -0.063900
     26 C18          8.7130     0.9300    -1.0600 ce         1 094      -0.065400
     27 C19          8.8430     0.2470     0.0910 c2         1 094      -0.149200
     28 C20          9.8970    -0.7880     0.3120 c3         1 094       0.193000
     29 N4          10.8710    -0.9240    -0.7550 n7         1 094      -0.821200
     30 C21         10.3520    -0.6550    -2.0810 c3         1 094       0.164800
     31 C22          9.6630     0.7060    -2.1890 c3         1 094      -0.039200
     32 C23          3.4180     0.0180    -0.9780 ca         1 094       0.208900
     33 F2           3.8440     0.2030    -2.2470 f          1 094      -0.119900
     34 C24          2.0510    -0.2460    -0.7700 ca         1 094      -0.221000
     35 H2           2.0910    -0.5710     2.6460 ha         1 094       0.156000
     36 H3           4.4990    -0.0510     2.2590 ha         1 094       0.152000
     37 H7           8.9950     3.3020    -2.2890 ha         1 094       0.156000
     38 HN2          4.1270     6.4600    -3.0490 hn         1 094       0.337500
     39 H101         4.2730     5.2200    -0.9200 h1         1 094       0.063700
     40 H102         3.5850     4.2110    -2.2800 h1         1 094       0.063700
     41 H14         11.3270     7.2770    -2.1510 ha         1 094       0.155500
     42 H15         12.1270     6.5930    -4.4100 ha         1 094       0.147000
     43 H16         10.6360     5.2960    -5.9290 ha         1 094       0.155500
     44 H19          8.1880     0.4200     0.9620 ha         1 094       0.144000
     45 H201        10.4790    -0.5120     1.2410 h1         1 094       0.044200
     46 H202         9.3640    -1.7640     0.5290 h1         1 094       0.044200
     47 HN4         11.2810    -1.8390    -0.7270 hn         1 094       0.365800
     48 H211         9.6200    -1.4470    -2.4200 h1         1 094       0.032700
     49 H212        11.2270    -0.6750    -2.7910 h1         1 094       0.032700
     50 H221        10.4350     1.5220    -2.1810 hc         1 094       0.059700
     51 H222         9.1220     0.7550    -3.1700 hc         1 094       0.059700
     52 H24          1.3620    -0.2870    -1.6260 ha         1 094       0.167000
@<TRIPOS>BOND
     1     1     2 1   
     2     2     3 ar  
     3     2    34 ar  
     4     3     4 ar  
     5     3    35 1   
     6     4     5 ar  
     7     4    36 1   
     8     5     6 1   
     9     5    32 ar  
    10     6     7 1   
    11     7     8 ar  
    12     7    17 ar  
    13     8     9 ar  
    14     8    26 1   
    15     9    10 ar  
    16     9    37 1   
    17    10    11 1   
    18    10    16 ar  
    19    11    12 1   
    20    11    18 1   
    21    12    13 2   
    22    12    14 1   
    23    14    15 1   
    24    14    38 1   
    25    15    16 1   
    26    15    39 1   
    27    15    40 1   
    28    16    17 ar  
    29    18    19 ar  
    30    18    24 ar  
    31    19    20 1   
    32    19    21 ar  
    33    21    22 ar  
    34    21    41 1   
    35    22    23 ar  
    36    22    42 1   
    37    23    24 ar  
    38    23    43 1   
    39    24    25 1   
    40    26    27 2   
    41    26    31 1   
    42    27    28 1   
    43    27    44 1   
    44    28    29 1   
    45    28    45 1   
    46    28    46 1   
    47    29    30 1   
    48    29    47 1   
    49    30    31 1   
    50    30    48 1   
    51    30    49 1   
    52    31    50 1   
    53    31    51 1   
    54    32    33 1   
    55    32    34 ar  
    56    34    52 1   
@<TRIPOS>SUBSTRUCTURE
     1 094         1 TEMP              0 ****  ****    0 ROOT
