@<TRIPOS>MOLECULE
095
   43    46     1     0     0
SMALL
bcc


@<TRIPOS>ATOM
      1 C5          -0.3270     0.8740     0.0240 ca         1 095      -0.162000
      2 C8           0.8750     0.3460    -0.4360 ca         1 095      -0.089000
      3 C3          -0.7400     0.6710     1.3490 ca         1 095      -0.076000
      4 C6           1.7130    -0.4010     0.4000 ca         1 095      -0.167000
      5 C1           0.0660    -0.0640     2.1950 ca         1 095      -0.149300
      6 C17          1.3060    -0.6050     1.7170 ca         1 095       0.065600
      7 C14          1.1850    -1.2540     3.9250 c          1 095       0.710500
      8 C9          -1.8690     0.8200     6.5370 c          1 095       0.644100
      9 C19         -0.0160    -0.8920     9.1290 c3         1 095      -0.127900
     10 C23         -2.5210    -0.8290     9.0890 c3         1 095      -0.127900
     11 C4          -0.2530     0.7490     4.5870 c3         1 095      -0.077400
     12 C13         -1.3680    -1.3050     3.9030 c3         1 095       0.166800
     13 C20         -0.1160    -1.1310    10.6250 c3         1 095       0.128900
     14 C22         -2.4880    -1.0740    10.5870 c3         1 095       0.128900
     15 C7          -1.7400     0.7480     5.0210 c3         1 095       0.119500
     16 C18         -1.2440    -0.1260     8.6490 c3         1 095       0.151100
     17 C2          -0.1060    -0.4460     3.6400 c3         1 095      -0.095700
     18 N16          1.9520    -1.3070     2.7470 ns         1 095      -0.482100
     19 N10         -2.3940    -0.4530     4.4930 n7         1 095      -0.783200
     20 O15          1.5230    -1.7830     4.9870 o          1 095      -0.585500
     21 O21         -1.3240    -1.7900    10.9870 os         1 095      -0.414600
     22 O11         -1.1570    -0.1230     7.2080 os         1 095      -0.413900
     23 H1          -0.9650     1.4580    -0.6550 ha         1 095       0.137000
     24 H2           1.1820     0.5170    -1.4800 ha         1 095       0.137000
     25 H3          -1.6910     1.0940     1.7040 ha         1 095       0.133000
     26 H4           2.6600    -0.8100     0.0230 ha         1 095       0.143000
     27 H5           0.0440    -1.8700     8.5840 hc         1 095       0.069200
     28 H6           0.9120    -0.3120     8.8970 hc         1 095       0.069200
     29 H7          -2.6120    -1.8040     8.5440 hc         1 095       0.069200
     30 H8          -3.4060    -0.1960     8.8250 hc         1 095       0.069200
     31 H9           0.0020     1.7070     4.0750 hc         1 095       0.079700
     32 H10          0.4170     0.6200     5.4750 hc         1 095       0.079700
     33 H11         -1.1150    -2.1010     4.6590 h1         1 095       0.076200
     34 H12         -1.7300    -1.7940     2.9620 h1         1 095       0.076200
     35 H13          0.6900    -1.8330    10.9710 h1         1 095       0.048950
     36 H14         -0.0380    -0.1600    11.1840 h1         1 095       0.048950
     37 H15         -2.5380    -0.1010    11.1450 h1         1 095       0.048950
     38 H16         -3.3360    -1.7380    10.9040 h1         1 095       0.048950
     39 H17         -2.2490     1.6820     4.6390 h1         1 095       0.076700
     40 H18         -1.2310     0.9350     9.0220 h1         1 095       0.066700
     41 H19          2.8260    -1.7540     2.6550 hn         1 095       0.343500
     42 H20         -3.0810    -0.1920     3.8100 hn         1 095       0.363800
     43 O12         -2.5290     1.6530     7.1610 o          1 095      -0.549000
@<TRIPOS>BOND
     1     1     2 ar  
     2     1     3 ar  
     3     1    23 1   
     4     2     4 ar  
     5     2    24 1   
     6     3     5 ar  
     7     3    25 1   
     8     4     6 ar  
     9     4    26 1   
    10     5     6 ar  
    11     5    17 1   
    12     6    18 1   
    13     7    17 1   
    14     7    18 1   
    15     7    20 2   
    16     8    15 1   
    17     8    22 1   
    18     8    43 2   
    19     9    13 1   
    20     9    16 1   
    21     9    27 1   
    22     9    28 1   
    23    10    14 1   
    24    10    16 1   
    25    10    29 1   
    26    10    30 1   
    27    11    15 1   
    28    11    17 1   
    29    11    31 1   
    30    11    32 1   
    31    12    17 1   
    32    12    19 1   
    33    12    33 1   
    34    12    34 1   
    35    13    21 1   
    36    13    35 1   
    37    13    36 1   
    38    14    21 1   
    39    14    37 1   
    40    14    38 1   
    41    15    19 1   
    42    15    39 1   
    43    16    22 1   
    44    16    40 1   
    45    18    41 1   
    46    19    42 1   
@<TRIPOS>SUBSTRUCTURE
     1 095         1 TEMP              0 ****  ****    0 ROOT
