@<TRIPOS>MOLECULE
095
   43    46     1     0     0
SMALL
bcc


@<TRIPOS>ATOM
      1 C5           0.0000     0.0000     0.0000 ca         1 095      -0.125000
      2 C8           1.3830     0.0000     0.0000 ca         1 095      -0.064000
      3 C3          -0.6890     0.0050     1.1990 ca         1 095      -0.041000
      4 C6           2.0790     0.0000     1.1910 ca         1 095      -0.119000
      5 C1           0.0020     0.0100     2.3910 ca         1 095      -0.150300
      6 C17          1.3940    -0.0010     2.4030 ca         1 095      -0.091400
      7 C14          0.8610     0.0210     4.6170 c          1 095       0.622500
      8 C9          -3.6430     1.5120     4.9770 c          1 095       0.688100
      9 C19         -6.4700     2.9790     5.1430 c3         1 095      -0.085400
     10 C23         -4.8950     4.9120     5.0640 c3         1 095      -0.085400
     11 C4          -1.2800     1.2480     4.1580 c3         1 095       0.008600
     12 C13         -1.2850    -1.2040     4.1710 c3         1 095       0.165800
     13 C20         -7.3970     3.8320     6.0110 c3         1 095       0.221400
     14 C22         -5.8830     5.6900     5.9360 c3         1 095       0.221400
     15 C7          -2.7230     0.6770     4.1260 c3         1 095       0.065500
     16 C18         -5.0200     3.4170     5.3740 c3         1 095       0.188100
     17 C2          -0.4220     0.0150     3.8320 c3         1 095      -0.104700
     18 N16          1.8650     0.0080     3.7180 ns         1 095      -0.016100
     19 N10         -2.5660    -0.6840     4.7030 n7         1 095      -0.538200
     20 O15          0.9710     0.0320     5.8250 o          1 095      -0.622500
     21 O21         -7.2080     5.2130     5.6950 os         1 095      -0.410600
     22 O11         -4.1400     2.6640     4.4980 os         1 095      -0.411900
     23 H1          -0.5430     0.0000    -0.9380 ha         1 095       0.109000
     24 H2           1.9220    -0.0040    -0.9400 ha         1 095       0.106000
     25 H3          -1.7720     0.0050     1.2010 ha         1 095       0.103000
     26 H4           3.1630     0.0000     1.1830 ha         1 095       0.108000
     27 H5          -6.5790     1.9360     5.4140 hc         1 095       0.031950
     28 H6          -6.7260     3.1150     4.0990 hc         1 095       0.031950
     29 H7          -5.1230     5.0840     4.0190 hc         1 095       0.031950
     30 H8          -3.8860     5.2420     5.2790 hc         1 095       0.031950
     31 H9          -1.0420     1.6290     5.1440 hc         1 095       0.043200
     32 H10         -1.1540     2.0120     3.4010 hc         1 095       0.043200
     33 H11         -1.4660    -1.7880     3.2770 h1         1 095       0.025700
     34 H12         -0.7910    -1.8080     4.9230 h1         1 095       0.025700
     35 H13         -8.4270     3.5560     5.8170 h1         1 095       0.010200
     36 H14         -7.1640     3.6670     7.0560 h1         1 095       0.010200
     37 H15         -5.6330     5.5460     6.9800 h1         1 095       0.010200
     38 H16         -5.8290     6.7430     5.6880 h1         1 095       0.010200
     39 H17         -3.0840     0.6170     3.1060 h1         1 095       0.025700
     40 H18         -4.7500     3.2390     6.4080 h1         1 095       0.042700
     41 H19          2.8350     0.0090     3.9640 hn         1 095       0.177500
     42 H20         -3.3180    -1.2670     4.3920 hn         1 095       0.254800
     43 O12         -3.9350     1.1460     6.0910 o          1 095      -0.551000
@<TRIPOS>BOND
     1     1     2 ar  
     2     1     3 ar  
     3     1    23 1   
     4     2     4 ar  
     5     2    24 1   
     6     3     5 ar  
     7     3    25 1   
     8     4     6 ar  
     9     4    26 1   
    10     5     6 ar  
    11     5    17 1   
    12     6    18 1   
    13     7    17 1   
    14     7    18 1   
    15     7    20 2   
    16     8    15 1   
    17     8    22 1   
    18     8    43 2   
    19     9    13 1   
    20     9    16 1   
    21     9    27 1   
    22     9    28 1   
    23    10    14 1   
    24    10    16 1   
    25    10    29 1   
    26    10    30 1   
    27    11    15 1   
    28    11    17 1   
    29    11    31 1   
    30    11    32 1   
    31    12    17 1   
    32    12    19 1   
    33    12    33 1   
    34    12    34 1   
    35    13    21 1   
    36    13    35 1   
    37    13    36 1   
    38    14    21 1   
    39    14    37 1   
    40    14    38 1   
    41    15    19 1   
    42    15    39 1   
    43    16    22 1   
    44    16    40 1   
    45    18    41 1   
    46    19    42 1   
@<TRIPOS>SUBSTRUCTURE
     1 095         1 TEMP              0 ****  ****    0 ROOT
