@<TRIPOS>MOLECULE
096
   61    64     1     0     0
SMALL
bcc


@<TRIPOS>ATOM
      1 S           -0.4160    -1.3540     0.1110 ss         1 096      -0.294200
      2 C1           3.4250    -6.2650    -0.2360 c3         1 096       0.113700
      3 N1           1.7380    -0.4340     1.3600 n          1 096      -0.384000
      4 C2           3.3110    -3.9370    -0.6390 ca         1 096       0.075100
      5 N2           4.9060     1.4030     0.7490 nb         1 096      -0.649000
      6 O2           0.9950    -0.4030     3.5700 o          1 096      -0.594500
      7 C3           2.5740    -2.9370     0.0000 ca         1 096      -0.078000
      8 N3          -1.2860     0.6910    -4.5500 n3         1 096      -0.734600
      9 C4           2.1240    -1.8120    -0.7030 ca         1 096      -0.121300
     10 N4          -3.5480    -1.2680    -4.7710 n3         1 096      -0.736600
     11 C5           1.3200    -0.7700     0.0120 c3         1 096       0.262100
     12 C6          -0.5390    -1.1590     1.8600 c3         1 096      -0.100300
     13 C7           0.7860    -0.6370     2.3710 c          1 096       0.709500
     14 C8           3.0230     0.0980     1.5900 ca         1 096      -0.044700
     15 C9           3.7040    -0.0910     2.8140 ca         1 096      -0.102000
     16 C10          4.9660     0.4740     2.9800 ca         1 096      -0.224300
     17 C11          5.5300     1.2130     1.9270 ca         1 096       0.376200
     18 C12          3.6890     0.8630     0.5860 ca         1 096       0.371200
     19 C13          2.4020    -1.6890    -2.0760 ca         1 096      -0.026300
     20 C14          1.9590    -0.5250    -2.8970 c3         1 096      -0.040100
     21 C15          0.4880    -0.6110    -3.2590 c3         1 096      -0.120400
     22 C16          0.0660     0.6390    -4.0330 c3         1 096       0.173800
     23 C17         -2.3330     0.5810    -3.5500 c3         1 096       0.156800
     24 C18         -3.0480    -0.7840    -3.4940 c3         1 096       0.151300
     25 C19         -4.9890    -1.3390    -4.8500 c3         1 096       0.158100
     26 C20         -2.9660    -0.5810    -5.9160 c3         1 096       0.151300
     27 C21         -1.4990    -0.1690    -5.7060 c3         1 096       0.156800
     28 C22          3.1300    -2.6960    -2.7200 ca         1 096      -0.201000
     29 C23          3.5920    -3.8130    -2.0170 ca         1 096       0.113100
     30 H1           3.8980    -6.9170     0.5410 h1         1 096       0.046367
     31 H1A          3.8140    -6.5140    -1.2530 h1         1 096       0.046367
     32 H1B          2.3130    -6.3570    -0.2090 h1         1 096       0.046367
     33 H3           2.3650    -3.0550     1.0750 ha         1 096       0.155000
     34 HO3          4.4460    -4.5750    -3.5470 ho         1 096       0.422000
     35 H5           1.2800     0.1800    -0.5950 h2         1 096       0.090700
     36 H6          -0.7660    -2.1350     2.3540 h1         1 096       0.110700
     37 H6A         -1.3470    -0.4350     2.1240 h1         1 096       0.110700
     38 H9           3.2430    -0.6630     3.6360 ha         1 096       0.168000
     39 H10          5.5130     0.3420     3.9230 ha         1 096       0.148000
     40 H11          6.5280     1.6760     2.0230 h4         1 096       0.025100
     41 H12          3.2280     1.0410    -0.4020 h4         1 096       0.020100
     42 H14          2.1660     0.4350    -2.3520 hc         1 096       0.051700
     43 H14A         2.5640    -0.4820    -3.8440 hc         1 096       0.051700
     44 H15         -0.1320    -0.7120    -2.3260 hc         1 096       0.054700
     45 H15A         0.3090    -1.5320    -3.8740 hc         1 096       0.054700
     46 H16          0.1900     1.5330    -3.3560 h1         1 096       0.049700
     47 H16A         0.7640     0.7740    -4.9080 h1         1 096       0.049700
     48 H17         -1.9260     0.8020    -2.5250 h1         1 096       0.046200
     49 H17A        -3.0910     1.3780    -3.7990 h1         1 096       0.046200
     50 H18         -3.8770    -0.7080    -2.7360 h1         1 096       0.044200
     51 H18A        -2.3170    -1.5610    -3.1270 h1         1 096       0.044200
     52 H19         -5.2730    -1.8020    -5.8320 h1         1 096       0.031367
     53 H19A        -5.3620    -1.9950    -4.0210 h1         1 096       0.031367
     54 H19B        -5.4950    -0.3370    -4.7710 h1         1 096       0.031367
     55 H20         -3.5600     0.3380    -6.1990 h1         1 096       0.044200
     56 H20A        -3.0070    -1.2950    -6.7850 h1         1 096       0.044200
     57 H21         -0.8710    -1.1050    -5.6550 h1         1 096       0.046200
     58 H21A        -1.1700     0.4150    -6.6110 h1         1 096       0.046200
     59 H22          3.3510    -2.6060    -3.7950 ha         1 096       0.139000
     60 O1           3.8260    -4.9500     0.1490 os         1 096      -0.326900
     61 O3           4.3060    -4.8200    -2.6200 oh         1 096      -0.490100
@<TRIPOS>BOND
     1     1    11 1   
     2     1    12 1   
     3     2    30 1   
     4     2    31 1   
     5     2    32 1   
     6     2    60 1   
     7     3    11 1   
     8     3    13 1   
     9     3    14 1   
    10     4     7 ar  
    11     4    29 ar  
    12     4    60 1   
    13     5    17 ar  
    14     5    18 ar  
    15     6    13 2   
    16     7     9 ar  
    17     7    33 1   
    18     8    22 1   
    19     8    23 1   
    20     8    27 1   
    21     9    11 1   
    22     9    19 ar  
    23    10    24 1   
    24    10    25 1   
    25    10    26 1   
    26    11    35 1   
    27    12    13 1   
    28    12    36 1   
    29    12    37 1   
    30    14    15 ar  
    31    14    18 ar  
    32    15    16 ar  
    33    15    38 1   
    34    16    17 ar  
    35    16    39 1   
    36    17    40 1   
    37    18    41 1   
    38    19    20 1   
    39    19    28 ar  
    40    20    21 1   
    41    20    42 1   
    42    20    43 1   
    43    21    22 1   
    44    21    44 1   
    45    21    45 1   
    46    22    46 1   
    47    22    47 1   
    48    23    24 1   
    49    23    48 1   
    50    23    49 1   
    51    24    50 1   
    52    24    51 1   
    53    25    52 1   
    54    25    53 1   
    55    25    54 1   
    56    26    27 1   
    57    26    55 1   
    58    26    56 1   
    59    27    57 1   
    60    27    58 1   
    61    28    29 ar  
    62    28    59 1   
    63    29    61 1   
    64    34    61 1   
@<TRIPOS>SUBSTRUCTURE
     1 096         1 TEMP              0 ****  ****    0 ROOT
