@<TRIPOS>MOLECULE
molecule
   61    64     1     0     0
SMALL
bcc


@<TRIPOS>ATOM
      1 S            0.0000     0.0000     0.0000 ss         1 096      -0.330200
      2 C1           2.3880    -4.7580     1.4100 c3         1 096       0.120700
      3 N1           2.1700     0.0000     1.4310 n          1 096      -0.393000
      4 C2           2.8760    -3.5830    -0.6000 ca         1 096       0.128100
      5 N2           4.8440    -1.7690     3.1260 nb         1 096      -0.680000
      6 O2           1.4180     0.3680     3.4890 o          1 096      -0.603500
      7 C3           2.3880    -2.4410     0.0150 ca         1 096      -0.176000
      8 N3           5.2640     3.0330    -2.7990 n3         1 096      -0.733600
      9 C4           2.3690    -1.2410    -0.6700 ca         1 096      -0.075300
     10 N4           7.8190     4.1700    -3.3270 n3         1 096      -0.733600
     11 C5           1.8370     0.0000     0.0000 c3         1 096       0.266100
     12 C6          -0.1330     0.6850     1.7000 c3         1 096      -0.053300
     13 C7           1.2180     0.3380     2.2920 c          1 096       0.694500
     14 C8           3.4530    -0.3460     1.8740 ca         1 096      -0.064700
     15 C9           4.5600     0.4030     1.4840 ca         1 096      -0.096000
     16 C10          5.8080     0.0210     1.9480 ca         1 096      -0.244300
     17 C11          5.9130    -1.0810     2.7750 ca         1 096       0.419200
     18 C12          3.6380    -1.4410     2.7070 ca         1 096       0.433200
     19 C13          2.8380    -1.1750    -1.9690 ca         1 096      -0.084300
     20 C14          2.8160     0.1360    -2.7120 c3         1 096      -0.041100
     21 C15          4.0760     0.9350    -2.3720 c3         1 096      -0.088400
     22 C16          4.0540     2.2660    -3.1260 c3         1 096       0.160800
     23 C17          5.3980     4.2040    -3.6770 c3         1 096       0.159800
     24 C18          6.6230     5.0180    -3.2550 c3         1 096       0.163800
     25 C19          9.0300     4.9370    -3.0000 c3         1 096       0.152100
     26 C20          7.6860     2.9990    -2.4490 c3         1 096       0.163800
     27 C21          6.4610     2.1850    -2.8720 c3         1 096       0.159800
     28 C22          3.3280    -2.3110    -2.5880 ca         1 096      -0.137000
     29 C23          3.3530    -3.5160    -1.9050 ca         1 096       0.097100
     30 H1           2.3310    -5.7750     1.7790 h1         1 096       0.046033
     31 H1A          1.4000    -4.3130     1.4200 h1         1 096       0.046033
     32 H1B          3.0510    -4.1810     2.0430 h1         1 096       0.046033
     33 H3           1.9610    -2.5030     1.0090 ha         1 096       0.151000
     34 HO3          4.7650    -4.5330    -2.6580 ho         1 096       0.418000
     35 H5           2.2170     0.8940    -0.4790 h2         1 096       0.094700
     36 H6          -0.2760     1.7590     1.6710 h1         1 096       0.106200
     37 H6A         -0.9300     0.1970     2.2490 h1         1 096       0.106200
     38 H9           4.4480     1.2630     0.8350 ha         1 096       0.147000
     39 H10          6.6920     0.5800     1.6660 ha         1 096       0.142000
     40 H11          6.8870    -1.3830     3.1410 h4         1 096       0.026100
     41 H12          2.7840    -2.0310     3.0170 h4         1 096       0.030100
     42 H14          2.7860    -0.0540    -3.7780 hc         1 096       0.055200
     43 H14A         1.9400     0.7020    -2.4210 hc         1 096       0.055200
     44 H15          4.9520     0.3690    -2.6640 hc         1 096       0.051200
     45 H15A         4.1070     1.1240    -1.3060 hc         1 096       0.051200
     46 H16          3.1780     2.8320    -2.8340 h1         1 096       0.037200
     47 H16A         4.0230     2.0770    -4.1920 h1         1 096       0.037200
     48 H17          4.5100     4.8200    -3.5940 h1         1 096       0.042200
     49 H17A         5.5200     3.8750    -4.7020 h1         1 096       0.042200
     50 H18          6.4900     5.3680    -2.2380 h1         1 096       0.040450
     51 H18A         6.7400     5.8640    -3.9210 h1         1 096       0.040450
     52 H19          8.9560     5.3150    -1.9880 h1         1 096       0.032700
     53 H19A         9.1270     5.7680    -3.6890 h1         1 096       0.032700
     54 H19B         9.8980     4.2950    -3.0840 h1         1 096       0.032700
     55 H20          8.5740     2.3840    -2.5320 h1         1 096       0.040450
     56 H20A         7.5630     3.3290    -1.4250 h1         1 096       0.040450
     57 H21          6.3440     1.3380    -2.2070 h1         1 096       0.042200
     58 H21A         6.5940     1.8360    -3.8890 h1         1 096       0.042200
     59 H22          3.6960    -2.2570    -3.6060 ha         1 096       0.146000
     60 O1           2.8930    -4.7640     0.0730 os         1 096      -0.308900
     61 O3           3.8390    -4.6330    -2.5120 oh         1 096      -0.499100
@<TRIPOS>BOND
     1     1    12 1   
     2     1    11 1   
     3     2    60 1   
     4     2    30 1   
     5     2    31 1   
     6     2    32 1   
     7    14     3 1   
     8     3    13 1   
     9     3    11 1   
    10    60     4 1   
    11     4    29 ar  
    12     4     7 ar  
    13    17     5 ar  
    14     5    18 ar  
    15     6    13 2   
    16     7     9 ar  
    17     7    33 1   
    18    27     8 1   
    19    23     8 1   
    20     8    22 1   
    21    61    29 1   
    22    61    34 1   
    23     9    19 ar  
    24     9    11 1   
    25    25    10 1   
    26    24    10 1   
    27    10    26 1   
    28    11    35 1   
    29    13    12 1   
    30    12    36 1   
    31    12    37 1   
    32    15    14 ar  
    33    14    18 ar  
    34    16    15 ar  
    35    15    38 1   
    36    16    17 ar  
    37    16    39 1   
    38    17    40 1   
    39    18    41 1   
    40    28    19 ar  
    41    19    20 1   
    42    21    20 1   
    43    20    42 1   
    44    20    43 1   
    45    21    22 1   
    46    21    44 1   
    47    21    45 1   
    48    22    46 1   
    49    22    47 1   
    50    24    23 1   
    51    23    48 1   
    52    23    49 1   
    53    24    50 1   
    54    24    51 1   
    55    25    52 1   
    56    25    53 1   
    57    25    54 1   
    58    27    26 1   
    59    26    55 1   
    60    26    56 1   
    61    27    57 1   
    62    27    58 1   
    63    29    28 ar  
    64    28    59 1   
@<TRIPOS>SUBSTRUCTURE
     1 096         1 TEMP              0 ****  ****    0 ROOT
