@<TRIPOS>MOLECULE
096
   61    64     1     0     0
SMALL
bcc


@<TRIPOS>ATOM
      1 S            0.0000     0.0000     0.0000 ss         1 096      -0.379200
      2 C1           2.3880    -4.7580     1.4100 c3         1 096       0.229700
      3 N1           2.1700     0.0000     1.4310 n          1 096      -0.006000
      4 C2           2.8760    -3.5830    -0.6000 ca         1 096       0.132100
      5 N2           4.8440    -1.7690     3.1260 nb         1 096      -0.571000
      6 O2           1.4180     0.3680     3.4890 o          1 096      -0.645500
      7 C3           2.3880    -2.4410     0.0150 ca         1 096      -0.176000
      8 N3           5.2640     3.0330    -2.7990 n3         1 096      -0.548600
      9 C4           2.3690    -1.2410    -0.6700 ca         1 096      -0.080300
     10 N4           7.8190     4.1700    -3.3270 n3         1 096      -0.548600
     11 C5           1.8370     0.0000     0.0000 c3         1 096       0.186100
     12 C6          -0.1330     0.6850     1.7000 c3         1 096       0.022700
     13 C7           1.2180     0.3380     2.2920 c          1 096       0.605500
     14 C8           3.4530    -0.3460     1.8740 ca         1 096      -0.191700
     15 C9           4.5600     0.4030     1.4840 ca         1 096      -0.071000
     16 C10          5.8080     0.0210     1.9480 ca         1 096      -0.211300
     17 C11          5.9130    -1.0810     2.7750 ca         1 096       0.411200
     18 C12          3.6380    -1.4410     2.7070 ca         1 096       0.422200
     19 C13          2.8380    -1.1750    -1.9690 ca         1 096      -0.083300
     20 C14          2.8160     0.1360    -2.7120 c3         1 096       0.021900
     21 C15          4.0760     0.9350    -2.3720 c3         1 096      -0.052400
     22 C16          4.0540     2.2660    -3.1260 c3         1 096       0.155800
     23 C17          5.3980     4.2040    -3.6770 c3         1 096       0.145800
     24 C18          6.6230     5.0180    -3.2550 c3         1 096       0.155300
     25 C19          9.0300     4.9370    -3.0000 c3         1 096       0.189100
     26 C20          7.6860     2.9990    -2.4490 c3         1 096       0.155300
     27 C21          6.4610     2.1850    -2.8720 c3         1 096       0.145800
     28 C22          3.3280    -2.3110    -2.5880 ca         1 096      -0.118000
     29 C23          3.3530    -3.5160    -1.9050 ca         1 096       0.109100
     30 H1           2.3310    -5.7750     1.7790 h1         1 096       0.003033
     31 H1A          1.4000    -4.3130     1.4200 h1         1 096       0.003033
     32 H1B          3.0510    -4.1810     2.0430 h1         1 096       0.003033
     33 H3           1.9610    -2.5030     1.0090 ha         1 096       0.138000
     34 HO3          4.7650    -4.5330    -2.6580 ho         1 096       0.400000
     35 H5           2.2170     0.8940    -0.4790 h2         1 096       0.077700
     36 H6          -0.2760     1.7590     1.6710 h1         1 096       0.074700
     37 H6A         -0.9300     0.1970     2.2490 h1         1 096       0.074700
     38 H9           4.4480     1.2630     0.8350 ha         1 096       0.119000
     39 H10          6.6920     0.5800     1.6660 ha         1 096       0.115000
     40 H11          6.8870    -1.3830     3.1410 h4         1 096      -0.017900
     41 H12          2.7840    -2.0310     3.0170 h4         1 096      -0.008900
     42 H14          2.7860    -0.0540    -3.7780 hc         1 096       0.027700
     43 H14A         1.9400     0.7020    -2.4210 hc         1 096       0.027700
     44 H15          4.9520     0.3690    -2.6640 hc         1 096       0.027700
     45 H15A         4.1070     1.1240    -1.3060 hc         1 096       0.027700
     46 H16          3.1780     2.8320    -2.8340 h1         1 096       0.011700
     47 H16A         4.0230     2.0770    -4.1920 h1         1 096       0.011700
     48 H17          4.5100     4.8200    -3.5940 h1         1 096       0.017450
     49 H17A         5.5200     3.8750    -4.7020 h1         1 096       0.017450
     50 H18          6.4900     5.3680    -2.2380 h1         1 096       0.013450
     51 H18A         6.7400     5.8640    -3.9210 h1         1 096       0.013450
     52 H19          8.9560     5.3150    -1.9880 h1         1 096       0.000700
     53 H19A         9.1270     5.7680    -3.6890 h1         1 096       0.000700
     54 H19B         9.8980     4.2950    -3.0840 h1         1 096       0.000700
     55 H20          8.5740     2.3840    -2.5320 h1         1 096       0.013450
     56 H20A         7.5630     3.3290    -1.4250 h1         1 096       0.013450
     57 H21          6.3440     1.3380    -2.2070 h1         1 096       0.017450
     58 H21A         6.5940     1.8360    -3.8890 h1         1 096       0.017450
     59 H22          3.6960    -2.2570    -3.6060 ha         1 096       0.120000
     60 O1           2.8930    -4.7640     0.0730 os         1 096      -0.286900
     61 O3           3.8390    -4.6330    -2.5120 oh         1 096      -0.479100
@<TRIPOS>BOND
     1     1    11 1   
     2     1    12 1   
     3     2    30 1   
     4     2    31 1   
     5     2    32 1   
     6     2    60 1   
     7     3    11 1   
     8     3    13 1   
     9     3    14 1   
    10     4     7 ar  
    11     4    29 ar  
    12     4    60 1   
    13     5    17 ar  
    14     5    18 ar  
    15     6    13 2   
    16     7     9 ar  
    17     7    33 1   
    18     8    22 1   
    19     8    23 1   
    20     8    27 1   
    21     9    11 1   
    22     9    19 ar  
    23    10    24 1   
    24    10    25 1   
    25    10    26 1   
    26    11    35 1   
    27    12    13 1   
    28    12    36 1   
    29    12    37 1   
    30    14    15 ar  
    31    14    18 ar  
    32    15    16 ar  
    33    15    38 1   
    34    16    17 ar  
    35    16    39 1   
    36    17    40 1   
    37    18    41 1   
    38    19    20 1   
    39    19    28 ar  
    40    20    21 1   
    41    20    42 1   
    42    20    43 1   
    43    21    22 1   
    44    21    44 1   
    45    21    45 1   
    46    22    46 1   
    47    22    47 1   
    48    23    24 1   
    49    23    48 1   
    50    23    49 1   
    51    24    50 1   
    52    24    51 1   
    53    25    52 1   
    54    25    53 1   
    55    25    54 1   
    56    26    27 1   
    57    26    55 1   
    58    26    56 1   
    59    27    57 1   
    60    27    58 1   
    61    28    29 ar  
    62    28    59 1   
    63    29    61 1   
    64    34    61 1   
@<TRIPOS>SUBSTRUCTURE
     1 096         1 TEMP              0 ****  ****    0 ROOT
