@<TRIPOS>MOLECULE
097
   52    51     1     0     0
SMALL
bcc


@<TRIPOS>ATOM
      1 N1           0.0000     0.0000     0.0000 ns         1 097      -0.176900
      2 C2          -1.7360     2.5240    -2.8230 c3         1 097      -0.008100
      3 O2           1.2360    -2.1880    -0.8570 o          1 097      -0.653100
      4 C4          -0.6740     1.1660    -0.0580 c          1 097       0.591100
      5 O3          -6.3140     2.6100    -1.1560 oh         1 097      -0.434100
      6 C5           1.4650     0.0000     0.0000 c3         1 097      -0.048300
      7 C6           1.9750     0.0000     1.4420 c3         1 097      -0.077000
      8 C8           1.5660    -1.3050     2.1280 c3         1 097      -0.006100
      9 C9           3.5000     0.1190     1.4440 c3         1 097      -0.006100
     10 C10          1.9670    -1.2310    -0.7110 c          1 097       0.569100
     11 C11          3.6830    -2.4210    -1.9650 c3         1 097       0.084300
     12 N3          -4.9020     2.5100    -1.1740 ns         1 097      -0.087400
     13 O4          -4.7910     2.6320     1.0370 o          1 097      -0.591100
     14 C13         -2.6980     2.5970    -0.0540 c3         1 097       0.114100
     15 O5          -2.2040     3.1910     1.1480 oh         1 097      -0.540800
     16 C14         -2.1770     1.1630    -0.1660 c3         1 097      -0.114700
     17 C15         -2.5900     0.5740    -1.5150 c3         1 097      -0.042400
     18 C1          -1.5980     1.0180    -2.5910 c3         1 097      -0.070700
     19 C3          -1.8920     0.2720    -3.8950 c3         1 097      -0.008100
     20 O1          -0.0700     2.2170    -0.0230 o          1 097      -0.647100
     21 C7           1.3700     1.1840     2.1970 c3         1 097      -0.006100
     22 N2           3.2290    -1.2690    -1.1840 ns         1 097      -0.194900
     23 HN1         -0.5000    -0.8650     0.0580 hn         1 097       0.201500
     24 H21         -2.7780     2.8080    -2.7440 hc         1 097       0.009533
     25 H22         -1.1590     3.0580    -2.0780 hc         1 097       0.009533
     26 H23         -1.3670     2.7720    -3.8110 hc         1 097       0.009533
     27 HO3         -6.5960     3.1980    -1.8370 ho         1 097       0.386000
     28 H5           1.8270     0.8840    -0.5110 h1         1 097       0.066700
     29 H81          0.4860    -1.3910     2.1250 hc         1 097       0.013478
     30 H82          1.9250    -1.3040     3.1500 hc         1 097       0.013478
     31 H83          1.9970    -2.1440     1.5950 hc         1 097       0.013478
     32 H91          3.9380    -0.8370     1.1850 hc         1 097       0.013478
     33 H92          3.8380     0.4160     2.4300 hc         1 097       0.013478
     34 H93          3.8050     0.8640     0.7190 hc         1 097       0.013478
     35 H111         3.5570    -3.3250    -1.3810 h1         1 097       0.010700
     36 H112         3.1000    -2.4940    -2.8740 h1         1 097       0.010700
     37 H113         4.7300    -2.2970    -2.2160 h1         1 097       0.010700
     38 HN3         -4.4180     2.4260    -2.0470 hn         1 097       0.179500
     39 HO5         -2.4480     4.1020     1.1720 ho         1 097       0.394000
     40 H151        -3.5830     0.9230    -1.7730 hc         1 097       0.030700
     41 H152        -2.5930    -0.5080    -1.4510 hc         1 097       0.030700
     42 H1          -0.5890     0.7930    -2.2670 hc         1 097       0.042700
     43 H31         -1.1100     0.4800    -4.6140 hc         1 097       0.009533
     44 H32         -2.8450     0.6010    -4.2920 hc         1 097       0.009533
     45 H33         -1.9300    -0.7930    -3.7010 hc         1 097       0.009533
     46 H71          1.5700     2.0990     1.6530 hc         1 097       0.013478
     47 H72          1.8120     1.2470     3.1840 hc         1 097       0.013478
     48 H73          0.3000     1.0450     2.2900 hc         1 097       0.013478
     49 HN2          3.8350    -0.4840    -1.0520 hn         1 097       0.181500
     50 H28         -2.3600     3.1730    -0.9070 h1         1 097       0.044700
     51 H29         -2.5950     0.5640     0.6340 hc         1 097       0.059700
     52 C12         -4.2050     2.5820    -0.0230 c          1 097       0.523100
@<TRIPOS>BOND
     1     1     4 1   
     2     1     6 1   
     3     1    23 1   
     4     2    18 1   
     5     2    24 1   
     6     2    25 1   
     7     2    26 1   
     8     3    10 2   
     9     4    16 1   
    10     4    20 2   
    11     5    12 1   
    12     5    27 1   
    13     6     7 1   
    14     6    10 1   
    15     6    28 1   
    16     7     8 1   
    17     7     9 1   
    18     7    21 1   
    19     8    29 1   
    20     8    30 1   
    21     8    31 1   
    22     9    32 1   
    23     9    33 1   
    24     9    34 1   
    25    10    22 1   
    26    11    22 1   
    27    11    35 1   
    28    11    36 1   
    29    11    37 1   
    30    12    38 1   
    31    12    52 1   
    32    13    52 2   
    33    14    15 1   
    34    14    16 1   
    35    14    50 1   
    36    14    52 1   
    37    15    39 1   
    38    16    17 1   
    39    16    51 1   
    40    17    18 1   
    41    17    40 1   
    42    17    41 1   
    43    18    19 1   
    44    18    42 1   
    45    19    43 1   
    46    19    44 1   
    47    19    45 1   
    48    21    46 1   
    49    21    47 1   
    50    21    48 1   
    51    22    49 1   
@<TRIPOS>SUBSTRUCTURE
     1 097         1 TEMP              0 ****  ****    0 ROOT
