@<TRIPOS>MOLECULE
098
   61    64     1     0     0
SMALL
bcc


@<TRIPOS>ATOM
      1 C5           1.5070     0.0000     0.0000 c3         1 098       0.061500
      2 C7           2.0590     1.3660     1.9210 c3         1 098       0.179800
      3 C8           2.5730     1.3260     3.3620 cx         1 098      -0.113700
      4 C10          2.8220     2.6640     4.0610 cx         1 098      -0.076400
      5 C13          2.0090    -3.7290    -0.6940 ca         1 098      -0.076300
      6 C15          3.7450    -5.3820    -0.7150 ca         1 098      -0.085000
      7 C17          1.9750    -5.4810    -2.3290 ca         1 098       0.120100
      8 C20          1.6350    -1.1790    -2.1770 c          1 098       0.561100
      9 C24          3.1610    -1.1950    -5.4210 c3         1 098       0.176100
     10 C26          3.1340    -0.2490    -6.6400 c3         1 098       0.009900
     11 C28          2.7700     2.3570    -6.6400 ca         1 098      -0.080000
     12 N2          -0.6750     0.4830    -1.0620 ns         1 098      -0.050400
     13 C3           0.0000     0.0000     0.0000 c          1 098       0.563100
     14 O4          -0.6060    -0.4350     0.9570 o          1 098      -0.591100
     15 N6           1.9970     0.0000     1.3850 n7         1 098      -0.540200
     16 C9           1.6240     1.8020     4.4640 cx         1 098      -0.076400
     17 C11          2.0160    -1.2500    -0.7210 c3         1 098      -0.110700
     18 C12          1.3910    -2.4940    -0.0890 c3         1 098       0.025900
     19 C14          3.1760    -4.2480    -0.1630 ca         1 098      -0.121000
     20 C16          3.1490    -5.9970    -1.7980 ca         1 098      -0.145000
     21 O18          1.3870    -6.0840    -3.3950 oh         1 098      -0.504100
     22 C19          1.4070    -4.3440    -1.7730 ca         1 098      -0.132000
     23 O21          0.5320    -1.5370    -2.5330 o          1 098      -0.648100
     24 N22          2.5190    -0.7200    -3.0850 ns         1 098      -0.166900
     25 C23          2.1160    -0.5560    -4.4830 c3         1 098       0.065000
     26 C27          2.6790     1.0880    -6.0940 ca         1 098      -0.081300
     27 C29          2.2780     3.4470    -5.9480 ca         1 098      -0.092000
     28 C30          1.6930     3.2710    -4.7090 ca         1 098      -0.105000
     29 C31          1.6010     2.0050    -4.1630 ca         1 098      -0.076000
     30 C32          2.0940     0.9110    -4.8550 ca         1 098      -0.123300
     31 H5           1.8680     0.8840    -0.5110 h1         1 098       0.007700
     32 H7           2.7300     1.9620     1.3150 h1         1 098       0.009200
     33 H7A          1.0690     1.8060     1.9030 h1         1 098       0.009200
     34 H8           3.2450     0.5290     3.6560 hc         1 098       0.059700
     35 H10          2.5870     3.5460     3.4780 hc         1 098       0.045200
     36 H10A         3.6450     2.6780     4.7640 hc         1 098       0.045200
     37 H15          4.6600    -5.7850    -0.2980 ha         1 098       0.102000
     38 H24          2.8580    -2.1950    -5.7070 h1         1 098       0.020700
     39 H26          2.4140    -0.6090    -7.3640 hc         1 098       0.033700
     40 H26A         4.1340    -0.1530    -7.0470 hc         1 098       0.033700
     41 H28          3.2290     2.4960    -7.6120 ha         1 098       0.104000
     42 HO1         -2.3440     1.4440    -1.3370 ho         1 098       0.382000
     43 HN2         -0.1760     0.7950    -1.8710 hn         1 098       0.162500
     44 HN6          2.9080    -0.4120     1.4160 hn         1 098       0.254800
     45 H9           1.7160     1.2890     5.4140 hc         1 098       0.045200
     46 H9A          0.6570     2.1570     4.1270 hc         1 098       0.045200
     47 H11          3.0950    -1.3030    -0.6330 hc         1 098       0.036700
     48 H12          0.3240    -2.4960    -0.2740 hc         1 098       0.056200
     49 H12A         1.5730    -2.4860     0.9790 hc         1 098       0.056200
     50 H14          3.6440    -3.7670     0.6870 ha         1 098       0.106000
     51 H16          3.5950    -6.8850    -2.2300 ha         1 098       0.111000
     52 HO18         0.7670    -6.7260    -3.0910 ho         1 098       0.404000
     53 H19          0.4900    -3.9400    -2.1860 ha         1 098       0.142000
     54 HN22         3.4500    -0.4830    -2.8010 hn         1 098       0.193500
     55 H23          1.1420    -0.9990    -4.6530 h1         1 098       0.083700
     56 H29          2.3500     4.4390    -6.3770 ha         1 098       0.105000
     57 H30          1.3060     4.1250    -4.1650 ha         1 098       0.103000
     58 H31          1.1430     1.8680    -3.1910 ha         1 098       0.091000
     59 O25          4.4530    -1.2020    -4.8110 oh         1 098      -0.585800
     60 O1          -2.0850     0.5970    -1.0130 oh         1 098      -0.431100
     61 HO25         4.9310    -1.9640    -5.0950 ho         1 098       0.399000
@<TRIPOS>BOND
     1     1    13 1   
     2     1    15 1   
     3     1    17 1   
     4     1    31 1   
     5     2     3 1   
     6     2    15 1   
     7     2    32 1   
     8     2    33 1   
     9     3     4 1   
    10     3    16 1   
    11     3    34 1   
    12     4    16 1   
    13     4    35 1   
    14     4    36 1   
    15     5    18 1   
    16     5    19 ar  
    17     5    22 ar  
    18     6    19 ar  
    19     6    20 ar  
    20     6    37 1   
    21     7    20 ar  
    22     7    21 1   
    23     7    22 ar  
    24     8    17 1   
    25     8    23 2   
    26     8    24 1   
    27     9    10 1   
    28     9    25 1   
    29     9    38 1   
    30     9    59 1   
    31    10    26 1   
    32    10    39 1   
    33    10    40 1   
    34    11    26 ar  
    35    11    27 ar  
    36    11    41 1   
    37    12    13 1   
    38    12    43 1   
    39    12    60 1   
    40    13    14 2   
    41    15    44 1   
    42    16    45 1   
    43    16    46 1   
    44    17    18 1   
    45    17    47 1   
    46    18    48 1   
    47    18    49 1   
    48    19    50 1   
    49    20    51 1   
    50    21    52 1   
    51    22    53 1   
    52    24    25 1   
    53    24    54 1   
    54    25    30 1   
    55    25    55 1   
    56    26    30 ar  
    57    27    28 ar  
    58    27    56 1   
    59    28    29 ar  
    60    28    57 1   
    61    29    30 ar  
    62    29    58 1   
    63    42    60 1   
    64    59    61 1   
@<TRIPOS>SUBSTRUCTURE
     1 098         1 TEMP              0 ****  ****    0 ROOT
