@<TRIPOS>MOLECULE
molecule
   49    51     1     0     0
SMALL
bcc


@<TRIPOS>ATOM
      1 C4           0.0000     0.0000     0.0000 ca         1 099      -0.126000
      2 C5           1.3780     0.0000     2.3920 ca         1 099      -0.073000
      3 C6           1.2290    -5.7820     6.9510 ca         1 099      -0.142000
      4 C7           0.1680    -7.1110     8.6370 ca         1 099      -0.156000
      5 C8          -0.3440    -4.7720     8.4470 ca         1 099      -0.154000
      6 C10          0.7370    -3.3400     6.7040 c3         1 099      -0.030100
      7 C13         -0.5290    -5.9950     9.0750 ca         1 099       0.106100
      8 C15         -0.0070    -0.0000     2.3940 ca         1 099      -0.115300
      9 C20         -0.3560    -3.1340     5.6530 c3         1 099      -0.118700
     10 C1           1.3810     0.0000     0.0000 ca         1 099      -0.123000
     11 C2           2.0700     0.0000     1.1970 ca         1 099      -0.130000
     12 C3           1.0460    -7.0020     7.5750 ca         1 099      -0.117000
     13 C9          -2.1870     0.0000     1.4640 c3         1 099      -0.054100
     14 C11         -0.1980    -4.1740     4.5420 c3         1 099      -0.147400
     15 C12          0.5350    -4.6680     7.3860 ca         1 099      -0.074300
     16 C14         -0.6980     0.0000     1.1970 ca         1 099      -0.094300
     17 C16          1.1230    -3.9690     3.8470 c          1 099       0.660100
     18 C18         -2.3340     0.4400     2.9360 c3         1 099       0.130100
     19 C19         -0.9870    -0.0000     3.5490 c3         1 099       0.169000
     20 N21          1.5340    -4.8430     2.9080 ns         1 099      -0.474400
     21 N22         -1.1020    -1.3450     4.1180 ns         1 099      -0.567900
     22 O24         -3.4230    -0.2380     3.5640 oh         1 099      -0.605800
     23 O25          2.7750    -4.6500     2.2550 oh         1 099      -0.361100
     24 O26          1.8180    -3.0160     4.1340 o          1 099      -0.554100
     25 H4          -0.5400    -0.0000    -0.9390 ha         1 099       0.124000
     26 H5           1.9190     0.0000     3.3310 ha         1 099       0.161000
     27 H6           1.9170    -5.6990     6.1190 ha         1 099       0.137000
     28 H7           0.0250    -8.0670     9.1260 ha         1 099       0.139000
     29 H8          -0.8880    -3.8990     8.7890 ha         1 099       0.142000
     30 H10          0.6860    -2.5450     7.4380 hc         1 099       0.084200
     31 H10A         1.7070    -3.3250     6.2220 hc         1 099       0.084200
     32 H20         -1.3290    -3.2480     6.1180 hc         1 099       0.072700
     33 H1           1.9230    -0.0000    -0.9380 ha         1 099       0.127000
     34 H2           3.1540     0.0000     1.1990 ha         1 099       0.135000
     35 H3           1.5910    -7.8730     7.2310 ha         1 099       0.132000
     36 H9          -2.5920    -0.9960     1.3300 hc         1 099       0.059200
     37 H9A         -2.6850     0.7060     0.8110 hc         1 099       0.059200
     38 H11         -0.2300    -5.1680     4.9700 hc         1 099       0.068200
     39 H11A        -1.0040    -4.0630     3.8260 hc         1 099       0.068200
     40 H18         -2.4510     1.5150     3.0030 h1         1 099       0.054700
     41 H19         -0.6710     0.7080     4.3050 h1         1 099       0.084700
     42 HN21         0.9530    -5.6200     2.6600 hn         1 099       0.317500
     43 HN22        -1.8510    -1.9460     3.8330 hn         1 099       0.322500
     44 HO23        -0.9440    -5.8920    10.9220 ho         1 099       0.420000
     45 HO24        -4.1170     0.3760     3.7380 ho         1 099       0.409000
     46 HO25         2.8190    -5.2040     1.4930 ho         1 099       0.397000
     47 C17         -0.2380    -1.7510     5.0690 c          1 099       0.670100
     48 O23         -1.3940    -6.1000    10.1200 oh         1 099      -0.524100
     49 O27          0.6360    -1.0030     5.4540 o          1 099      -0.591100
@<TRIPOS>BOND
     1     1    10 ar
     2     1    16 ar
     3     2     8 ar
     4     2    11 ar
     5     3    12 ar
     6     3    15 ar
     7     4     7 ar
     8     4    12 ar
     9     5     7 ar
    10     5    15 ar
    11     6     9 1
    12     6    15 1
    13     7    48 1
    14     8    16 ar
    15     8    19 1
    16    47     9 1
    17    47    21 1
    18    47    49 2
    19     9    14 1
    20    10    11 ar
    21    13    16 1
    22    13    18 1
    23    14    17 1
    24    17    20 1
    25    17    24 2
    26    18    19 1
    27    18    22 1
    28    19    21 1
    29    20    23 1
    30     1    25 1
    31     2    26 1
    32     3    27 1
    33     4    28 1
    34     5    29 1
    35     6    30 1
    36     6    31 1
    37     9    32 1
    38    10    33 1
    39    11    34 1
    40    12    35 1
    41    13    36 1
    42    13    37 1
    43    14    38 1
    44    14    39 1
    45    18    40 1
    46    19    41 1
    47    20    42 1
    48    21    43 1
    49    48    44 1
    50    22    45 1
    51    23    46 1
@<TRIPOS>SUBSTRUCTURE
     1 099         1 TEMP              0 ****  ****    0 ROOT
