@<TRIPOS>MOLECULE
09A
   42    45     1     0     0
SMALL
bcc


@<TRIPOS>ATOM
      1 C22         -0.4650     0.3630     0.2450 ca         1 09A      -0.121000
      2 C5           3.3270    -8.1400     5.7480 ca         1 09A      -0.163000
      3 C21          0.9170     0.2480     0.4000 ca         1 09A      -0.137000
      4 C23         -1.2880     0.4310     1.3690 ca         1 09A      -0.137000
      5 C8           4.5580    -8.7860     5.6880 ca         1 09A      -0.089000
      6 C3           3.2470    -6.7410     5.6970 ca         1 09A      -0.076000
      7 C20          1.4760     0.2040     1.6770 ca         1 09A      -0.108500
      8 C24         -0.7330     0.3860     2.6470 ca         1 09A      -0.108500
      9 C6           5.7550    -8.0690     5.5720 ca         1 09A      -0.168000
     10 C1           4.4120    -6.0090     5.5860 ca         1 09A      -0.149300
     11 C19          0.6520     0.2750     2.8060 ca         1 09A      -0.124300
     12 C17          5.6800    -6.6780     5.5210 ca         1 09A       0.066600
     13 C14          6.1850    -4.4340     5.3900 c          1 09A       0.709500
     14 C9           2.6820    -1.6620     4.3800 c          1 09A       0.648100
     15 C4           3.9410    -3.8490     4.3260 c3         1 09A      -0.078400
     16 C13          4.1400    -3.7530     6.7520 c3         1 09A       0.168800
     17 C7           2.7560    -3.0720     4.9470 c3         1 09A       0.124500
     18 C2           4.6430    -4.5240     5.5070 c3         1 09A      -0.092700
     19 C18          1.2540     0.2620     4.1730 c3         1 09A       0.181700
     20 N16          6.7150    -5.7380     5.4110 ns         1 09A      -0.482100
     21 N10          2.9210    -3.0370     6.4030 n7         1 09A      -0.791200
     22 O12          3.5300    -1.0450     3.7360 o          1 09A      -0.536000
     23 O11          1.4740    -1.0810     4.6340 os         1 09A      -0.429900
     24 H1          -0.9040     0.4000    -0.7620 ha         1 09A       0.131000
     25 H2           2.4030    -8.7290     5.8370 ha         1 09A       0.137000
     26 H3           1.5680     0.1930    -0.4840 ha         1 09A       0.132000
     27 H4          -2.3780     0.5200     1.2480 ha         1 09A       0.132000
     28 H5           4.5990    -9.8860     5.7290 ha         1 09A       0.136000
     29 H6           2.2700    -6.2390     5.7420 ha         1 09A       0.134000
     30 H7           2.5660     0.1050     1.8090 ha         1 09A       0.144000
     31 H8          -1.3840     0.4360     3.5320 ha         1 09A       0.144000
     32 H9           6.7180    -8.5930     5.5240 ha         1 09A       0.142000
     33 H10          4.6430    -3.1440     3.8080 hc         1 09A       0.086700
     34 H11          3.5710    -4.5990     3.5870 hc         1 09A       0.086700
     35 H12          4.9100    -2.9830     7.0430 h1         1 09A       0.072200
     36 H13          3.9800    -4.4500     7.6170 h1         1 09A       0.072200
     37 H14          1.7840    -3.5730     4.6600 h1         1 09A       0.068700
     38 H15          2.2180     0.8370     4.1890 h1         1 09A       0.072700
     39 H16          0.5400     0.6740     4.9370 h1         1 09A       0.072700
     40 H17          7.6710    -5.9660     5.3320 hn         1 09A       0.343500
     41 H18          2.1180    -3.4330     6.8520 hn         1 09A       0.368800
     42 O15          6.8750    -3.4150     5.3020 o          1 09A      -0.581500
@<TRIPOS>BOND
     1     1     3 ar  
     2     1     4 ar  
     3     1    24 1   
     4     2     5 ar  
     5     2     6 ar  
     6     2    25 1   
     7     3     7 ar  
     8     3    26 1   
     9     4     8 ar  
    10     4    27 1   
    11     5     9 ar  
    12     5    28 1   
    13     6    10 ar  
    14     6    29 1   
    15     7    11 ar  
    16     7    30 1   
    17     8    11 ar  
    18     8    31 1   
    19     9    12 ar  
    20     9    32 1   
    21    10    12 ar  
    22    10    18 1   
    23    11    19 1   
    24    12    20 1   
    25    13    18 1   
    26    13    20 1   
    27    13    42 2   
    28    14    17 1   
    29    14    22 2   
    30    14    23 1   
    31    15    17 1   
    32    15    18 1   
    33    15    33 1   
    34    15    34 1   
    35    16    18 1   
    36    16    21 1   
    37    16    35 1   
    38    16    36 1   
    39    17    21 1   
    40    17    37 1   
    41    19    23 1   
    42    19    38 1   
    43    19    39 1   
    44    20    40 1   
    45    21    41 1   
@<TRIPOS>SUBSTRUCTURE
     1 09A         1 TEMP              0 ****  ****    0 ROOT
