@<TRIPOS>MOLECULE
09A
   42    45     1     0     0
SMALL
bcc


@<TRIPOS>ATOM
      1 C22          0.0000     0.0000     0.0000 ca         1 09A      -0.091000
      2 C5           3.2430    -7.8760     5.2450 ca         1 09A      -0.125000
      3 C21          1.3820     0.0000     0.0000 ca         1 09A      -0.106000
      4 C23         -0.6910     0.0060     1.1970 ca         1 09A      -0.106000
      5 C8           4.3890    -8.6300     5.0700 ca         1 09A      -0.064000
      6 C3           3.3440    -6.5370     5.5800 ca         1 09A      -0.040000
      7 C20          2.0740     0.0000     1.1980 ca         1 09A      -0.075500
      8 C24          0.0000     0.0120     2.3940 ca         1 09A      -0.075500
      9 C6           5.6320    -8.0540     5.2330 ca         1 09A      -0.120000
     10 C1           4.5820    -5.9570     5.7390 ca         1 09A      -0.150300
     11 C19          1.3830     0.0000     2.3940 ca         1 09A      -0.118300
     12 C17          5.7430    -6.7080     5.5750 ca         1 09A      -0.091400
     13 C14          6.5400    -4.6390     6.0880 c          1 09A       0.622500
     14 C9           3.0290    -1.5280     5.2880 c          1 09A       0.686100
     15 C4           4.5250    -3.5380     5.0730 c3         1 09A       0.008600
     16 C13          4.4960    -4.1270     7.4530 c3         1 09A       0.164800
     17 C7           3.3050    -2.9170     5.8020 c3         1 09A       0.066500
     18 C2           5.0380    -4.5700     6.0910 c3         1 09A      -0.104700
     19 C18          2.1360     0.0070     3.6990 c3         1 09A       0.286700
     20 N16          6.8680    -5.9090     5.7830 ns         1 09A      -0.014100
     21 N10          3.7390    -2.8740     7.2230 n7         1 09A      -0.538200
     22 O12          3.4060    -0.5660     5.9150 o          1 09A      -0.551000
     23 O11          2.3660    -1.3590     4.1340 os         1 09A      -0.414900
     24 H1          -0.5420    -0.0030    -0.9380 ha         1 09A       0.102000
     25 H2           2.2690    -8.3310     5.1170 ha         1 09A       0.109000
     26 H3           1.9240    -0.0020    -0.9380 ha         1 09A       0.103500
     27 H4          -1.7740     0.0100     1.1980 ha         1 09A       0.103500
     28 H5           4.3100    -9.6780     4.8080 ha         1 09A       0.106000
     29 H6           2.4470    -5.9450     5.7170 ha         1 09A       0.103000
     30 H7           3.1570    -0.0050     1.1970 ha         1 09A       0.106500
     31 H8          -0.5420     0.0140     3.3330 ha         1 09A       0.106500
     32 H9           6.5260    -8.6510     5.0940 ha         1 09A       0.107000
     33 H10          5.2790    -2.7850     4.8800 hc         1 09A       0.043200
     34 H11          4.2160    -4.0270     4.1570 hc         1 09A       0.043200
     35 H12          5.3180    -3.9410     8.1340 h1         1 09A       0.025200
     36 H13          3.8390    -4.8880     7.8540 h1         1 09A       0.025200
     37 H14          2.4330    -3.5520     5.6910 h1         1 09A       0.024700
     38 H15          3.0870     0.5090     3.5650 h1         1 09A       0.015200
     39 H16          1.5540     0.5310     4.4480 h1         1 09A       0.015200
     40 H17          7.8100    -6.2410     5.7120 hn         1 09A       0.177500
     41 H18          2.9340    -2.8570     7.8170 hn         1 09A       0.254800
     42 O15          7.3070    -3.7280     6.3190 o          1 09A      -0.623500
@<TRIPOS>BOND
     1     1     3 ar  
     2     1     4 ar  
     3     1    24 1   
     4     2     5 ar  
     5     2     6 ar  
     6     2    25 1   
     7     3     7 ar  
     8     3    26 1   
     9     4     8 ar  
    10     4    27 1   
    11     5     9 ar  
    12     5    28 1   
    13     6    10 ar  
    14     6    29 1   
    15     7    11 ar  
    16     7    30 1   
    17     8    11 ar  
    18     8    31 1   
    19     9    12 ar  
    20     9    32 1   
    21    10    12 ar  
    22    10    18 1   
    23    11    19 1   
    24    12    20 1   
    25    13    18 1   
    26    13    20 1   
    27    13    42 2   
    28    14    17 1   
    29    14    22 2   
    30    14    23 1   
    31    15    17 1   
    32    15    18 1   
    33    15    33 1   
    34    15    34 1   
    35    16    18 1   
    36    16    21 1   
    37    16    35 1   
    38    16    36 1   
    39    17    21 1   
    40    17    37 1   
    41    19    23 1   
    42    19    38 1   
    43    19    39 1   
    44    20    40 1   
    45    21    41 1   
@<TRIPOS>SUBSTRUCTURE
     1 09A         1 TEMP              0 ****  ****    0 ROOT
