@<TRIPOS>MOLECULE
09B
   43    46     1     0     0
SMALL
bcc


@<TRIPOS>ATOM
      1 C13          0.0000     0.0000     0.0000 ca         1 09B      -0.111000
      2 C14          1.3830     0.0000     0.0000 ca         1 09B      -0.056000
      3 C2          -7.0490     5.7940     3.2700 ca         1 09B      -0.060000
      4 C3          -5.1480     6.9860     4.1640 ca         1 09B      -0.060000
      5 C12         -0.6880     0.0040     1.2010 ca         1 09B      -0.024000
      6 C5          -6.6260     4.6510     3.9150 ca         1 09B      -0.091500
      7 C6          -4.7340     5.8330     4.7990 ca         1 09B      -0.091500
      8 C15          2.0800     0.0000     1.1900 ca         1 09B      -0.117000
      9 C1          -6.3090     6.9720     3.3880 ca         1 09B       0.055000
     10 C11          0.0040     0.0100     2.3910 ca         1 09B      -0.151300
     11 C8          -5.4710     4.6700     4.6780 ca         1 09B      -0.141300
     12 C10          1.3950    -0.0020     2.4030 ca         1 09B      -0.138400
     13 C18          0.8650     0.0200     4.6170 c          1 09B       0.631500
     14 C24         -3.6390     1.5110     4.9810 c          1 09B       0.699100
     15 C21         -1.2770     1.2470     4.1600 c3         1 09B      -0.039400
     16 C20         -1.2810    -1.2040     4.1730 c3         1 09B       0.135800
     17 C22         -2.7190     0.6760     4.1290 c3         1 09B       0.087500
     18 C16         -0.4190     0.0150     3.8330 c3         1 09B      -0.128700
     19 C9          -5.0160     3.4160     5.3790 c3         1 09B       0.280700
     20 N7          -7.0620     9.1130     2.1860 n1         1 09B      -0.373800
     21 N17          1.8670     0.0080     3.7180 ns         1 09B      -0.008100
     22 N19         -2.5620    -0.6840     4.7050 n7         1 09B      -0.603200
     23 O23          0.9760     0.0310     5.8250 o          1 09B      -0.638500
     24 O26         -4.1360     2.6640     4.5030 os         1 09B      -0.444900
     25 H1          -0.3400     0.1020    -1.0240 ha         1 09B       0.115000
     26 H2           1.9700     0.1340    -0.9000 ha         1 09B       0.106000
     27 H3          -8.0090     5.7600     2.7690 ha         1 09B       0.117000
     28 H4          -4.3270     7.6910     4.1120 ha         1 09B       0.117000
     29 H5          -1.7650     0.0230     1.3150 ha         1 09B       0.108000
     30 H6          -6.9700     3.6460     3.7010 ha         1 09B       0.122000
     31 H7          -3.8130     5.4220     5.1940 ha         1 09B       0.122000
     32 H8           3.1060     0.0320     1.5390 ha         1 09B       0.111000
     33 H9          -0.9620     1.8650     3.3280 hc         1 09B       0.050700
     34 H10         -1.2640     1.6730     5.1560 hc         1 09B       0.050700
     35 H11         -1.6550    -1.5700     3.2250 h1         1 09B       0.058700
     36 H12         -0.8750    -1.7000     5.0470 h1         1 09B       0.058700
     37 H13         -3.0820     0.6170     3.1100 h1         1 09B       0.056700
     38 H14         -4.3370     3.5840     6.2070 h1         1 09B       0.035700
     39 H15         -5.8710     2.7520     5.3560 h1         1 09B       0.035700
     40 H16          2.8490     0.1530     3.8460 hn         1 09B       0.176500
     41 H17         -2.3230    -0.8150     5.6680 hn         1 09B       0.289800
     42 O25         -3.9300     1.1450     6.0950 o          1 09B      -0.570000
     43 C4          -6.7390     8.1620     2.7160 cg         1 09B       0.227800
@<TRIPOS>BOND
     1     1     2 ar  
     2     1     5 ar  
     3     1    25 1   
     4     2     8 ar  
     5     2    26 1   
     6     3     6 ar  
     7     3     9 ar  
     8     3    27 1   
     9     4     7 ar  
    10     4     9 ar  
    11     4    28 1   
    12     5    10 ar  
    13     5    29 1   
    14     6    11 ar  
    15     6    30 1   
    16     7    11 ar  
    17     7    31 1   
    18     8    12 ar  
    19     8    32 1   
    20     9    43 1   
    21    10    12 ar  
    22    10    18 1   
    23    11    19 1   
    24    12    21 1   
    25    13    18 1   
    26    13    21 1   
    27    13    23 2   
    28    14    17 1   
    29    14    24 1   
    30    14    42 2   
    31    15    17 1   
    32    15    18 1   
    33    15    33 1   
    34    15    34 1   
    35    16    18 1   
    36    16    22 1   
    37    16    35 1   
    38    16    36 1   
    39    17    22 1   
    40    17    37 1   
    41    19    24 1   
    42    19    38 1   
    43    19    39 1   
    44    20    43 3   
    45    21    40 1   
    46    22    41 1   
@<TRIPOS>SUBSTRUCTURE
     1 09B         1 TEMP              0 ****  ****    0 ROOT
