@<TRIPOS>MOLECULE
09B
   43    46     1     0     0
SMALL
bcc


@<TRIPOS>ATOM
      1 C13         -0.4490     0.6370     0.0320 ca         1 09B      -0.163000
      2 C14          0.5680    -0.1140    -0.5480 ca         1 09B      -0.088000
      3 C2          -2.0050     6.2010     8.1020 ca         1 09B      -0.094500
      4 C3          -0.5190     5.6460     9.9410 ca         1 09B      -0.094500
      5 C12         -0.6570     0.6150     1.4190 ca         1 09B      -0.076000
      6 C5          -2.2600     4.8470     7.9060 ca         1 09B      -0.116500
      7 C6          -0.7760     4.2930     9.7350 ca         1 09B      -0.116500
      8 C15          1.4170    -0.9140     0.2250 ca         1 09B      -0.167000
      9 C1          -1.1340     6.6050     9.1240 ca         1 09B      -0.014000
     10 C11          0.1640    -0.1670     2.2050 ca         1 09B      -0.150300
     11 C8          -1.6500     3.8870     8.7210 ca         1 09B      -0.091300
     12 C10          1.2140    -0.9400     1.6040 ca         1 09B       0.067600
     13 C18          1.3720    -1.3790     3.8600 c          1 09B       0.709500
     14 C24         -0.8220     1.5060     6.6310 c          1 09B       0.646100
     15 C21          0.3940     0.8860     4.5090 c3         1 09B      -0.079400
     16 C20         -1.1200    -1.0050     4.2480 c3         1 09B       0.167800
     17 C22         -0.9810     1.1860     5.1520 c3         1 09B       0.126500
     18 C16          0.1890    -0.3920     3.6930 c3         1 09B      -0.092700
     19 C9          -1.9560     2.4360     8.5350 c3         1 09B       0.173700
     20 N7          -0.6600     9.1190     9.4980 n1         1 09B      -0.362800
     21 N17          1.9130    -1.6510     2.5900 ns         1 09B      -0.481100
     22 N19         -1.8570     0.0260     4.9670 n7         1 09B      -0.792200
     23 O23          1.7940    -1.8740     4.9080 o          1 09B      -0.581500
     24 O26         -1.9500     2.0840     7.1460 os         1 09B      -0.434900
     25 H1          -1.1000     1.2590    -0.6000 ha         1 09B       0.137000
     26 H2           0.7160    -0.0820    -1.6390 ha         1 09B       0.137000
     27 H3          -2.4860     6.9540     7.4580 ha         1 09B       0.146000
     28 H4           0.1690     5.9620    10.7400 ha         1 09B       0.146000
     29 H5          -1.4620     1.2150     1.8680 ha         1 09B       0.133000
     30 H6          -2.9400     4.5200     7.1040 ha         1 09B       0.147000
     31 H7          -0.2830     3.5400    10.3700 ha         1 09B       0.147000
     32 H8           2.2170    -1.5010    -0.2470 ha         1 09B       0.143000
     33 H9           1.1700     0.7210     5.3020 hc         1 09B       0.087700
     34 H10          0.7140     1.7380     3.8620 hc         1 09B       0.087700
     35 H11         -1.7340    -1.4540     3.4230 h1         1 09B       0.073200
     36 H12         -0.8620    -1.8130     4.9900 h1         1 09B       0.073200
     37 H13         -1.4270     2.1110     4.6810 h1         1 09B       0.066700
     38 H14         -3.0140     2.2210     8.8540 h1         1 09B       0.079700
     39 H15         -1.2410     1.7890     9.1100 h1         1 09B       0.079700
     40 H16          2.6900    -2.2340     2.4150 hn         1 09B       0.344500
     41 H17         -2.6890     0.2940     4.4780 hn         1 09B       0.369800
     42 O25          0.1550     1.3380     7.3580 o          1 09B      -0.523000
     43 C4          -0.8730     7.9870     9.3300 cg         1 09B       0.232800
@<TRIPOS>BOND
     1     1     2 ar  
     2     1     5 ar  
     3     1    25 1   
     4     2     8 ar  
     5     2    26 1   
     6     3     6 ar  
     7     3     9 ar  
     8     3    27 1   
     9     4     7 ar  
    10     4     9 ar  
    11     4    28 1   
    12     5    10 ar  
    13     5    29 1   
    14     6    11 ar  
    15     6    30 1   
    16     7    11 ar  
    17     7    31 1   
    18     8    12 ar  
    19     8    32 1   
    20     9    43 1   
    21    10    12 ar  
    22    10    18 1   
    23    11    19 1   
    24    12    21 1   
    25    13    18 1   
    26    13    21 1   
    27    13    23 2   
    28    14    17 1   
    29    14    24 1   
    30    14    42 2   
    31    15    17 1   
    32    15    18 1   
    33    15    33 1   
    34    15    34 1   
    35    16    18 1   
    36    16    22 1   
    37    16    35 1   
    38    16    36 1   
    39    17    22 1   
    40    17    37 1   
    41    19    24 1   
    42    19    38 1   
    43    19    39 1   
    44    20    43 3   
    45    21    40 1   
    46    22    41 1   
@<TRIPOS>SUBSTRUCTURE
     1 09B         1 TEMP              0 ****  ****    0 ROOT
