@<TRIPOS>MOLECULE
molecule
   43    46     1     0     0
SMALL
bcc


@<TRIPOS>ATOM
      1 C13          0.0000     0.0000     0.0000 ca         1 09B      -0.141000
      2 C14          1.3830     0.0000     0.0000 ca         1 09B      -0.084000
      3 C2          -7.0490     5.7940     3.2700 ca         1 09B      -0.082500
      4 C3          -5.1480     6.9860     4.1640 ca         1 09B      -0.082500
      5 C12         -0.6880     0.0040     1.2010 ca         1 09B      -0.061000
      6 C5          -6.6260     4.6510     3.9150 ca         1 09B      -0.121500
      7 C6          -4.7340     5.8330     4.7990 ca         1 09B      -0.121500
      8 C15          2.0800     0.0000     1.1900 ca         1 09B      -0.157000
      9 C1          -6.3090     6.9720     3.3880 ca         1 09B       0.008000
     10 C11          0.0040     0.0100     2.3910 ca         1 09B      -0.147300
     11 C8          -5.4710     4.6700     4.6780 ca         1 09B      -0.114300
     12 C10          1.3950    -0.0020     2.4030 ca         1 09B       0.016600
     13 C18          0.8650     0.0200     4.6170 c          1 09B       0.730500
     14 C24         -3.6390     1.5110     4.9810 c          1 09B       0.637100
     15 C21         -1.2770     1.2470     4.1600 c3         1 09B      -0.094400
     16 C20         -1.2810    -1.2040     4.1730 c3         1 09B       0.139800
     17 C22         -2.7190     0.6760     4.1290 c3         1 09B       0.122500
     18 C16         -0.4190     0.0150     3.8330 c3         1 09B      -0.142700
     19 C9          -5.0160     3.4160     5.3790 c3         1 09B       0.196700
     20 N7          -7.0620     9.1130     2.1860 n1         1 09B      -0.354800
     21 N17          1.8670     0.0080     3.7180 ns         1 09B      -0.458100
     22 N19         -2.5620    -0.6840     4.7050 n7         1 09B      -0.791200
     23 O23          0.9760     0.0310     5.8250 o          1 09B      -0.597500
     24 O26         -4.1360     2.6640     4.5030 os         1 09B      -0.461900
     25 H1          -0.3400     0.1020    -1.0240 ha         1 09B       0.145000
     26 H2           1.9700     0.1340    -0.9000 ha         1 09B       0.139000
     27 H3          -8.0090     5.7600     2.7690 ha         1 09B       0.148500
     28 H4          -4.3270     7.6910     4.1120 ha         1 09B       0.148500
     29 H5          -1.7650     0.0230     1.3150 ha         1 09B       0.137000
     30 H6          -6.9700     3.6460     3.7010 ha         1 09B       0.149000
     31 H7          -3.8130     5.4220     5.1940 ha         1 09B       0.149000
     32 H8           3.1060     0.0320     1.5390 ha         1 09B       0.136000
     33 H9          -0.9620     1.8650     3.3280 hc         1 09B       0.081700
     34 H10         -1.2640     1.6730     5.1560 hc         1 09B       0.081700
     35 H11         -1.6550    -1.5700     3.2250 h1         1 09B       0.091200
     36 H12         -0.8750    -1.7000     5.0470 h1         1 09B       0.091200
     37 H13         -3.0820     0.6170     3.1100 h1         1 09B       0.094700
     38 H14         -4.3370     3.5840     6.2070 h1         1 09B       0.076700
     39 H15         -5.8710     2.7520     5.3560 h1         1 09B       0.076700
     40 H16          2.8490     0.1530     3.8460 hn         1 09B       0.336500
     41 H17         -2.3230    -0.8150     5.6680 hn         1 09B       0.375800
     42 O25         -3.9300     1.1450     6.0950 o          1 09B      -0.533000
     43 C4          -6.7390     8.1620     2.7160 cg         1 09B       0.237800
@<TRIPOS>BOND
     1    22    17 1
     2    22    16 1
     3     5     1 ar
     4     5    10 ar
     5     1     2 ar
     6    17    15 1
     7    17    14 1
     8    16    18 1
     9    15    18 1
    10    10    18 1
    11    10    12 ar
    12    14    42 2
    13    14    24 1
    14    18    13 1
    15     2     8 ar
    16    24    19 1
    17     6     3 ar
    18     6    11 ar
    19    12     8 ar
    20    12    21 1
    21     3     9 ar
    22    19    11 1
    23    13    21 1
    24    13    23 2
    25    11     7 ar
    26     9    43 1
    27     9     4 ar
    28    43    20 3
    29     7     4 ar
    30     1    25 1
    31     2    26 1
    32     3    27 1
    33     4    28 1
    34     5    29 1
    35     6    30 1
    36     7    31 1
    37     8    32 1
    38    15    33 1
    39    15    34 1
    40    16    35 1
    41    16    36 1
    42    17    37 1
    43    19    38 1
    44    19    39 1
    45    21    40 1
    46    22    41 1
@<TRIPOS>SUBSTRUCTURE
     1 09B         1 TEMP              0 ****  ****    0 ROOT
