@<TRIPOS>MOLECULE
09C
   43    47     1     0     0
SMALL
bcc


@<TRIPOS>ATOM
      1 C1          -0.0690    -0.5350     0.1520 c          1 09C       0.697500
      2 N1           1.5820     0.9030     1.3990 n7         1 09C      -0.810200
      3 O1          -0.5020    -0.9800    -0.9270 o          1 09C      -0.638500
      4 C2           1.3630     0.0250     0.2570 c3         1 09C       0.191700
      5 N2          -0.8740    -0.5680     1.2800 ns         1 09C      -0.558900
      6 N3           1.8730    -2.3760     4.6540 na         1 09C      -0.189400
      7 N4           4.0720    -2.5400     0.4280 na         1 09C      -0.187400
      8 C3           4.5660     0.6860     5.4470 ca         1 09C      -0.127000
      9 C4           2.5460    -2.5630    -3.4340 ca         1 09C      -0.135000
     10 C5           3.5150     0.8390     4.5580 ca         1 09C      -0.092000
     11 C6           2.0330    -1.7400    -2.4430 ca         1 09C      -0.069000
     12 C7           1.0380    -1.7400     3.7360 cc         1 09C      -0.063100
     13 C8           3.2580    -1.5710     1.0120 cc         1 09C      -0.089100
     14 C9           3.9330    -1.6210     5.9460 ca         1 09C      -0.114000
     15 C10          4.2130    -3.5100    -1.9200 ca         1 09C      -0.122000
     16 C11         -0.6300     0.3160     2.3840 c3         1 09C       0.092000
     17 C12          0.8710     0.6070     2.6340 c3         1 09C       0.242700
     18 C13          4.7730    -0.5300     6.1310 ca         1 09C      -0.011900
     19 C14          3.6240    -3.4330    -3.1760 ca         1 09C      -0.005900
     20 C15          1.4750    -0.4330     3.5110 cd         1 09C      -0.201400
     21 C16          2.3470    -1.0770     0.0750 cd         1 09C      -0.181400
     22 C17          2.8660    -1.4740     5.0460 ca         1 09C      -0.058200
     23 C18          3.7010    -2.6800    -0.9120 ca         1 09C      -0.053200
     24 C19          2.6480    -0.2320     4.3380 ca         1 09C      -0.086800
     25 C20          2.6040    -1.7740    -1.1700 ca         1 09C      -0.065800
     26 HA           1.4680     0.7070    -0.6510 h1         1 09C       0.096700
     27 HAE          2.0970    -2.5400    -4.4390 ha         1 09C       0.146000
     28 HAF          3.3570     1.7920     4.0310 ha         1 09C       0.143000
     29 HAG          1.1680    -1.0850    -2.6360 ha         1 09C       0.164000
     30 HAH          0.1910    -2.2710     3.2910 h4         1 09C       0.184000
     31 HAI          3.3760    -1.3080     2.0680 h4         1 09C       0.180000
     32 HAJ          4.0900    -2.5680     6.4820 ha         1 09C       0.149000
     33 HAK          5.0490    -4.1940    -1.7150 ha         1 09C       0.145000
     34 H1AL        -1.1510     1.3050     2.2160 h1         1 09C       0.046700
     35 H2AL        -1.0670    -0.1470     3.3140 h1         1 09C       0.046700
     36 H12          2.5670     0.9740     1.5850 hn         1 09C       0.378800
     37 H13         -1.8230    -0.8400     1.1410 hn         1 09C       0.311500
     38 H14          1.7600    -3.2900     5.0030 hn         1 09C       0.305700
     39 H15          4.8120    -3.0150     0.8700 hn         1 09C       0.301700
     40 H16          0.9080     1.5800     3.2230 h1         1 09C       0.074700
     41 HAD          5.2520     1.5300     5.6240 ha         1 09C       0.148000
     42 Br1          6.2160    -0.6730     7.3190 br         1 09C      -0.087100
     43 Br2          4.2750    -4.5180    -4.5620 br         1 09C      -0.099100
@<TRIPOS>BOND
     1     1     3 2   
     2     1     4 1   
     3     1     5 1   
     4     2     4 1   
     5     2    17 1   
     6     2    36 1   
     7     4    21 1   
     8     4    26 1   
     9     5    16 1   
    10     5    37 1   
    11     6    12 1   
    12     6    22 1   
    13     6    38 1   
    14     7    13 1   
    15     7    23 1   
    16     7    39 1   
    17     8    10 ar  
    18     8    18 ar  
    19     8    41 1   
    20     9    11 ar  
    21     9    19 ar  
    22     9    27 1   
    23    10    24 ar  
    24    10    28 1   
    25    11    25 ar  
    26    11    29 1   
    27    12    20 2   
    28    12    30 1   
    29    13    21 2   
    30    13    31 1   
    31    14    18 ar  
    32    14    22 ar  
    33    14    32 1   
    34    15    19 ar  
    35    15    23 ar  
    36    15    33 1   
    37    16    17 1   
    38    16    34 1   
    39    16    35 1   
    40    17    20 1   
    41    17    40 1   
    42    18    42 1   
    43    19    43 1   
    44    20    24 1   
    45    21    25 1   
    46    22    24 ar  
    47    23    25 ar  
@<TRIPOS>SUBSTRUCTURE
     1 09C         1 TEMP              0 ****  ****    0 ROOT
