@<TRIPOS>MOLECULE
09C
   43    47     1     0     0
SMALL
bcc


@<TRIPOS>ATOM
      1 C1           0.0000     0.0000     0.0000 c          1 09C       0.612500
      2 N1           2.0040     0.0000     1.3810 n7         1 09C      -0.594200
      3 O1          -0.5810    -0.3150    -1.0160 o          1 09C      -0.680500
      4 C2           1.5020     0.0000     0.0000 c3         1 09C       0.160700
      5 N2          -0.7230     0.3370     1.0730 ns         1 09C      -0.183900
      6 N3           3.2260     0.7730     5.3060 na         1 09C       0.363600
      7 N4           2.7600    -3.2780    -1.1100 na         1 09C       0.358600
      8 C3           1.4560     4.5030     5.3480 ca         1 09C      -0.111000
      9 C4           2.2870    -0.9890    -4.5140 ca         1 09C      -0.119000
     10 C5           1.3200     3.6130     4.3190 ca         1 09C      -0.043000
     11 C6           2.0060    -0.5380    -3.2550 ca         1 09C      -0.024000
     12 C7           2.7930     0.2960     4.1000 cc         1 09C      -0.242100
     13 C8           2.3560    -2.3940    -0.1470 cc         1 09C      -0.245100
     14 C9           2.8490     2.9580     6.5530 ca         1 09C      -0.080000
     15 C10          2.9570    -3.1280    -3.6420 ca         1 09C      -0.087000
     16 C11         -0.1230     0.7020     2.3520 c3         1 09C       0.046000
     17 C12          1.3480     1.0740     2.1540 c3         1 09C       0.207700
     18 C13          2.2170     4.1790     6.4640 ca         1 09C       0.054100
     19 C14          2.7620    -2.2800    -4.7110 ca         1 09C       0.058100
     20 C15          2.0200     1.2110     3.4970 cd         1 09C      -0.168400
     21 C16          2.0030    -1.2290    -0.7130 cd         1 09C      -0.144400
     22 C17          2.7250     2.0380     5.5170 ca         1 09C      -0.225200
     23 C18          2.6740    -2.6890    -2.3520 ca         1 09C      -0.226200
     24 C19          1.9520     2.3710     4.3890 ca         1 09C      -0.088800
     25 C20          2.1960    -1.3800    -2.1580 ca         1 09C      -0.069800
     26 HA           1.8590     0.8870    -0.5100 h1         1 09C       0.028700
     27 HAE          2.1380    -0.3350    -5.3650 ha         1 09C       0.116000
     28 HAF          0.7260     3.8720     3.4520 ha         1 09C       0.105000
     29 HAG          1.6360     0.4700    -3.1090 ha         1 09C       0.108000
     30 HAH          3.0390    -0.6770     3.6910 h4         1 09C       0.152000
     31 HAI          2.3260    -2.6030     0.9160 h4         1 09C       0.148000
     32 HAJ          3.3710     2.6830     7.4620 ha         1 09C       0.114000
     33 HAK          3.2430    -4.1590    -3.8130 ha         1 09C       0.112000
     34 H1AL        -0.1910    -0.1390     3.0320 h1         1 09C       0.022200
     35 H2AL        -0.6530     1.5500     2.7680 h1         1 09C       0.022200
     36 H12          2.9940     0.1490     1.3760 hn         1 09C       0.269800
     37 H13         -1.7210     0.3400     0.9950 hn         1 09C       0.183500
     38 H14          3.8170     0.2750     5.9430 hn         1 09C       0.117700
     39 H15          3.0710    -4.2140    -0.9380 hn         1 09C       0.114700
     40 H16          1.4160     2.0080     1.6090 h1         1 09C       0.018700
     41 HAD          0.9670     5.4680     5.2930 ha         1 09C       0.118000
     42 Br1          2.3890     5.4280     7.8740 br         1 09C      -0.133100
     43 Br2          3.1430    -2.8800    -6.4630 br         1 09C      -0.145100
@<TRIPOS>BOND
     1     1     3 2   
     2     1     4 1   
     3     1     5 1   
     4     2     4 1   
     5     2    17 1   
     6     2    36 1   
     7     4    21 1   
     8     4    26 1   
     9     5    16 1   
    10     5    37 1   
    11     6    12 1   
    12     6    22 1   
    13     6    38 1   
    14     7    13 1   
    15     7    23 1   
    16     7    39 1   
    17     8    10 ar  
    18     8    18 ar  
    19     8    41 1   
    20     9    11 ar  
    21     9    19 ar  
    22     9    27 1   
    23    10    24 ar  
    24    10    28 1   
    25    11    25 ar  
    26    11    29 1   
    27    12    20 2   
    28    12    30 1   
    29    13    21 2   
    30    13    31 1   
    31    14    18 ar  
    32    14    22 ar  
    33    14    32 1   
    34    15    19 ar  
    35    15    23 ar  
    36    15    33 1   
    37    16    17 1   
    38    16    34 1   
    39    16    35 1   
    40    17    20 1   
    41    17    40 1   
    42    18    42 1   
    43    19    43 1   
    44    20    24 1   
    45    21    25 1   
    46    22    24 ar  
    47    23    25 ar  
@<TRIPOS>SUBSTRUCTURE
     1 09C         1 TEMP              0 ****  ****    0 ROOT
