@<TRIPOS>MOLECULE
09D
   47    51     1     0     0
SMALL
bcc


@<TRIPOS>ATOM
      1 C1          -0.3370     0.4100    -0.1720 ca         1 09D      -0.161000
      2 C2           0.9010    -0.1100    -0.5370 ca         1 09D      -0.089000
      3 C3          -0.7570     0.3930     1.1660 ca         1 09D      -0.076000
      4 C4           1.7690    -0.6650     0.4120 ca         1 09D      -0.166000
      5 C5          -0.1550     5.7930     9.8060 ca         1 09D      -0.130000
      6 C6          -0.8950     6.6170     8.9690 ca         1 09D      -0.083000
      7 C7          -1.5860     4.6820     7.6960 ca         1 09D      -0.063000
      8 C8           0.0770    -0.1500     2.1210 ca         1 09D      -0.147300
      9 C9          -0.8410     3.8500     8.5370 ca         1 09D      -0.102300
     10 C10          1.3550    -0.6840     1.7420 ca         1 09D       0.065600
     11 C11         -0.1150     4.4040     9.6030 ca         1 09D       0.025900
     12 C12         -1.6150     6.0610     7.9060 ca         1 09D      -0.044900
     13 C13          1.2420    -0.9780     4.0230 c          1 09D       0.709500
     14 C14         -1.5980     0.9430     6.5220 c          1 09D       0.637100
     15 C15          0.4410     1.6820     8.7370 c3         1 09D      -0.104400
     16 C16         -0.3220     1.0040     4.3550 c3         1 09D      -0.076400
     17 C17         -1.2980    -1.2100     3.9920 c3         1 09D       0.164800
     18 C18          0.6920     1.8580    10.2070 c3         1 09D      -0.034300
     19 C19         -0.8590     2.3650     8.3180 c3         1 09D       0.195400
     20 C20         -1.7240     0.8800     5.0070 c3         1 09D       0.124500
     21 C21         -0.0940    -0.3120     3.6070 c3         1 09D      -0.100700
     22 N22          2.0260    -1.1760     2.8730 ns         1 09D      -0.480100
     23 N23         -2.3420    -0.3730     4.5690 n7         1 09D      -0.778200
     24 O24          1.5980    -1.2970     5.1620 o          1 09D      -0.590500
     25 O26         -1.0540     2.1450     6.9050 os         1 09D      -0.450900
     26 S27          0.8410     3.5460    10.7020 ss         1 09D      -0.166000
     27 Br2         -2.6150     7.1630     6.7700 br         1 09D      -0.091100
     28 H1          -0.9970     0.8410    -0.9380 ha         1 09D       0.138000
     29 H2           1.2130    -0.0870    -1.5930 ha         1 09D       0.137000
     30 H3          -1.7370     0.8080     1.4430 ha         1 09D       0.134000
     31 H4           2.7430    -1.0710     0.1090 ha         1 09D       0.143000
     32 H6          -0.9110     7.7030     9.1480 ha         1 09D       0.148000
     33 H8           1.2930     2.0960     8.1360 hc         1 09D       0.077200
     34 H9           0.3550     0.5880     8.4950 hc         1 09D       0.077200
     35 H10          0.4640     1.1680     5.1340 hc         1 09D       0.080200
     36 H11         -0.3050     1.8720     3.6510 hc         1 09D       0.080200
     37 H12         -1.6760    -1.7800     3.1030 h1         1 09D       0.077200
     38 H13         -0.9750    -1.9420     4.7850 h1         1 09D       0.077200
     39 H14         -0.1230     1.3700    10.7980 h1         1 09D       0.083200
     40 H15          1.6600     1.3750    10.4950 h1         1 09D       0.083200
     41 H16         -1.7280     1.9150     8.8820 h1         1 09D       0.085700
     42 H17         -2.3630     1.7650     4.7180 h1         1 09D       0.080700
     43 H18          2.9320    -1.5650     2.8590 hn         1 09D       0.344500
     44 H19         -3.0640    -0.1810     3.9010 hn         1 09D       0.364800
     45 H7          -2.1450     4.2310     6.8600 ha         1 09D       0.154000
     46 O25         -1.9140     0.1360     7.3910 o          1 09D      -0.502000
     47 H5           0.4130     6.2310    10.6430 ha         1 09D       0.148000
@<TRIPOS>BOND
     1     1     2 ar  
     2     1     3 ar  
     3     1    28 1   
     4     2     4 ar  
     5     2    29 1   
     6     3     8 ar  
     7     3    30 1   
     8     4    10 ar  
     9     4    31 1   
    10     5     6 ar  
    11     5    11 ar  
    12     5    47 1   
    13     6    12 ar  
    14     6    32 1   
    15     7     9 ar  
    16     7    12 ar  
    17     7    45 1   
    18     8    10 ar  
    19     8    21 1   
    20     9    11 ar  
    21     9    19 1   
    22    10    22 1   
    23    11    26 1   
    24    12    27 1   
    25    13    21 1   
    26    13    22 1   
    27    13    24 2   
    28    14    20 1   
    29    14    25 1   
    30    14    46 2   
    31    15    18 1   
    32    15    19 1   
    33    15    33 1   
    34    15    34 1   
    35    16    20 1   
    36    16    21 1   
    37    16    35 1   
    38    16    36 1   
    39    17    21 1   
    40    17    23 1   
    41    17    37 1   
    42    17    38 1   
    43    18    26 1   
    44    18    39 1   
    45    18    40 1   
    46    19    25 1   
    47    19    41 1   
    48    20    23 1   
    49    20    42 1   
    50    22    43 1   
    51    23    44 1   
@<TRIPOS>SUBSTRUCTURE
     1 09D         1 TEMP              0 ****  ****    0 ROOT
