@<TRIPOS>MOLECULE
molecule
   47    51     1     0     0
SMALL
bcc


@<TRIPOS>ATOM
      1 C1           0.0000     0.0000     0.0000 ca         1 09D      -0.152000
      2 C2           1.3820     0.0000     0.0000 ca         1 09D      -0.090000
      3 C3          -0.6880     0.0050     1.2010 ca         1 09D      -0.075000
      4 C4           2.0800     0.0000     1.1900 ca         1 09D      -0.156000
      5 C5          -8.9400     3.1940     4.8370 ca         1 09D      -0.118000
      6 C6          -9.0890     1.8510     4.5680 ca         1 09D      -0.080000
      7 C7          -6.7240     1.5620     4.7850 ca         1 09D      -0.075000
      8 C8           0.0040     0.0100     2.3910 ca         1 09D      -0.146300
      9 C9          -6.4280     2.9670     5.1440 ca         1 09D      -0.120300
     10 C10          1.3950     0.0000     2.4030 ca         1 09D       0.059600
     11 C11         -7.6740     3.7350     5.0720 ca         1 09D       0.072900
     12 C12         -7.9730     1.0320     4.5390 ca         1 09D      -0.033900
     13 C13          0.8640     0.0220     4.6180 c          1 09D       0.722500
     14 C14         -3.6400     1.5140     4.9810 c          1 09D       0.628100
     15 C15         -4.8060     4.9020     5.1160 c3         1 09D      -0.076400
     16 C16         -1.2770     1.2490     4.1590 c3         1 09D      -0.045400
     17 C17         -1.2810    -1.2030     4.1730 c3         1 09D       0.172800
     18 C18         -5.8790     5.6630     6.0060 c3         1 09D      -0.002300
     19 C19         -5.0160     3.4190     5.3780 c3         1 09D       0.221400
     20 C20         -2.7200     0.6780     4.1280 c3         1 09D       0.106500
     21 C21         -0.4200     0.0170     3.8330 c3         1 09D      -0.114700
     22 N22          1.8670     0.0100     3.7180 ns         1 09D      -0.465100
     23 N23         -2.5630    -0.6820     4.7060 n7         1 09D      -0.765200
     24 O24          0.9750     0.0340     5.8260 o          1 09D      -0.583500
     25 O26         -4.1370     2.6650     4.5020 os         1 09D      -0.425900
     26 S27         -7.5660     5.4720     5.3620 ss         1 09D      -0.264000
     27 Br2         -8.1540    -0.7960     4.0930 br         1 09D      -0.092100
     28 H1          -0.5430     0.0000    -0.9370 ha         1 09D       0.138000
     29 H2           1.9210    -0.0040    -0.9400 ha         1 09D       0.138000
     30 H3          -1.7710     0.0050     1.2040 ha         1 09D       0.132000
     31 H4           3.1630    -0.0000     1.1810 ha         1 09D       0.135000
     32 H6         -10.0720     1.4400     4.3750 ha         1 09D       0.146000
     33 H8          -4.9780     5.1270     4.0700 hc         1 09D       0.072200
     34 H9          -3.8090     5.2160     5.4010 hc         1 09D       0.072200
     35 H10         -1.0380     1.6320     5.1440 hc         1 09D       0.077200
     36 H11         -1.1520     2.0130     3.4010 hc         1 09D       0.077200
     37 H12         -0.7870    -1.8060     4.9250 h1         1 09D       0.059700
     38 H13         -1.4630    -1.7880     3.2800 h1         1 09D       0.059700
     39 H14         -5.8820     5.2370     7.0010 h1         1 09D       0.081700
     40 H15         -5.6520     6.7230     6.0080 h1         1 09D       0.081700
     41 H16         -4.7520     3.2090     6.4070 h1         1 09D       0.088700
     42 H17         -3.0820     0.6180     3.1090 h1         1 09D       0.054700
     43 H18          2.8380     0.0100     3.9630 hn         1 09D       0.339500
     44 H19         -3.3150    -1.2650     4.3950 hn         1 09D       0.360800
     45 H7          -5.9210     0.8360     4.7690 ha         1 09D       0.136000
     46 O25         -3.9300     1.1480     6.0940 o          1 09D      -0.505000
     47 H5          -9.8110     3.8370     4.8600 ha         1 09D       0.151000
@<TRIPOS>BOND
     1    23    20 1   
     2    23    17 1   
     3     3     1 ar  
     4     3     8 ar  
     5     1     2 ar  
     6    20    16 1   
     7    20    14 1   
     8    17    21 1   
     9    16    21 1   
    10     8    21 1   
    11     8    10 ar  
    12    46    14 2   
    13    14    25 1   
    14    21    13 1   
    15     2     4 ar  
    16    27    12 1   
    17    25    19 1   
    18    10     4 ar  
    19    10    22 1   
    20     7    12 ar  
    21     7     9 ar  
    22    13    24 2   
    23    13    22 1   
    24    12     6 ar  
    25    19     9 1   
    26    19    15 1   
    27     9    11 ar  
    28    15    18 1   
    29     6     5 ar  
    30    11     5 ar  
    31    11    26 1   
    32    18    26 1   
    33     1    28 1   
    34     2    29 1   
    35     3    30 1   
    36     4    31 1   
    37     5    47 1   
    38     6    32 1   
    39    15    33 1   
    40    15    34 1   
    41    16    35 1   
    42    16    36 1   
    43    17    37 1   
    44    17    38 1   
    45    18    39 1   
    46    18    40 1   
    47    19    41 1   
    48    20    42 1   
    49    22    43 1   
    50    23    44 1   
    51     7    45 1   
@<TRIPOS>SUBSTRUCTURE
     1 09D         1 TEMP              0 ****  ****    0 ROOT
