@<TRIPOS>MOLECULE
09E
   49    53     1     0     0
SMALL
bcc


@<TRIPOS>ATOM
      1 C1           0.0000     0.0000     0.0000 ca         1 09E      -0.153300
      2 C2           1.5020     0.0000     0.0000 c3         1 09E      -0.097700
      3 C3          -0.9490     0.0070    -0.9990 ca         1 09E      -0.039000
      4 C4           2.0640    -1.2250    -0.7310 c3         1 09E       0.007600
      5 C5          -2.2940     0.0030    -0.6760 ca         1 09E      -0.125000
      6 C6          -1.7370    -0.0130     1.6550 ca         1 09E      -0.119000
      7 C7           2.9300    -0.6390    -1.8700 c3         1 09E       0.067500
      8 C8          -2.6830    -0.0080     0.6510 ca         1 09E      -0.063000
      9 C9           4.1680    -1.4740    -2.0720 c          1 09E       0.684100
     10 N1           3.2950     0.7240    -1.4010 n7         1 09E      -0.532200
     11 O1           5.2220    -1.1150    -1.6040 o          1 09E      -0.537000
     12 C10          2.0640     1.2260    -0.7320 c3         1 09E       0.167800
     13 C11          1.8930     0.0000     1.4520 c          1 09E       0.619500
     14 O2           3.0220     0.0030     1.8980 o          1 09E      -0.614500
     15 N2           0.7490    -0.0030     2.1610 ns         1 09E      -0.016100
     16 C12         -0.3800    -0.0040     1.3390 ca         1 09E      -0.090400
     17 C13          5.3310    -3.3700    -2.9290 c3         1 09E       0.225400
     18 C14          4.9960    -4.8510    -2.9290 c3         1 09E      -0.010400
     19 O3           4.0990    -2.6170    -2.7740 os         1 09E      -0.407900
     20 C15          6.2980    -5.6600    -3.0310 c3         1 09E       0.010400
     21 S1           6.9280    -5.4440    -4.7230 sy         1 09E       0.870300
     22 C16          6.7550    -3.7110    -5.0140 ca         1 09E      -0.110500
     23 C17          6.0250    -2.9030    -4.1740 ca         1 09E      -0.024300
     24 C18          5.9100    -1.5470    -4.4780 ca         1 09E      -0.110000
     25 C19          6.5240    -1.0160    -5.5910 ca         1 09E       0.080100
     26 C20          7.2680    -1.8320    -6.4250 ca         1 09E      -0.104000
     27 C21          7.3760    -3.1760    -6.1340 ca         1 09E       0.021000
     28 Br1          6.3520     0.8280    -5.9800 br         1 09E      -0.122100
     29 O4           8.3290    -5.6730    -4.7700 o          1 09E      -0.579300
     30 O5           6.0520    -6.0520    -5.6640 o          1 09E      -0.579300
     31 H1          -0.6420     0.0160    -2.0370 ha         1 09E       0.103000
     32 H2           1.2580    -1.8220    -1.1400 hc         1 09E       0.038200
     33 H3           2.6760    -1.8160    -0.0600 hc         1 09E       0.038200
     34 H4          -3.0410     0.0080    -1.4610 ha         1 09E       0.110000
     35 H5          -2.0500    -0.0220     2.6930 ha         1 09E       0.108000
     36 H6           2.3540    -0.5790    -2.7860 h1         1 09E       0.025700
     37 H7          -3.7370    -0.0110     0.9040 ha         1 09E       0.106000
     38 H8           3.5050     1.3030    -2.1900 hn         1 09E       0.256800
     39 H10          2.3130     2.0070    -0.0240 h1         1 09E       0.023700
     40 H11          1.3550     1.5840    -1.4680 h1         1 09E       0.023700
     41 H12          0.7110    -0.0030     3.1610 hn         1 09E       0.178500
     42 H13          5.9750    -3.1650    -2.0820 h1         1 09E       0.056700
     43 H15          4.4840    -5.1060    -2.0100 hc         1 09E       0.040200
     44 H16          6.0820    -6.7080    -2.8610 h1         1 09E       0.076200
     45 H17          7.0210    -5.2640    -2.3280 h1         1 09E       0.076200
     46 H18          5.3300    -0.9010    -3.8300 ha         1 09E       0.133000
     47 H19          7.7530    -1.4220    -7.3020 ha         1 09E       0.123000
     48 H20          7.9570    -3.8200    -6.7830 ha         1 09E       0.121000
     49 H14          4.3630    -5.0780    -3.7780 hc         1 09E       0.040200
@<TRIPOS>BOND
     1     1     2 1   
     2     1     3 ar  
     3     1    16 ar  
     4     2     4 1   
     5     2    12 1   
     6     2    13 1   
     7     3     5 ar  
     8     3    31 1   
     9     4     7 1   
    10     4    32 1   
    11     4    33 1   
    12     5     8 ar  
    13     5    34 1   
    14     6     8 ar  
    15     6    16 ar  
    16     6    35 1   
    17     7     9 1   
    18     7    10 1   
    19     7    36 1   
    20     8    37 1   
    21     9    11 2   
    22     9    19 1   
    23    10    12 1   
    24    10    38 1   
    25    12    39 1   
    26    12    40 1   
    27    13    14 2   
    28    13    15 1   
    29    15    16 1   
    30    15    41 1   
    31    17    18 1   
    32    17    19 1   
    33    17    23 1   
    34    17    42 1   
    35    18    20 1   
    36    18    43 1   
    37    18    49 1   
    38    20    21 1   
    39    20    44 1   
    40    20    45 1   
    41    21    22 1   
    42    21    29 2   
    43    21    30 2   
    44    22    23 ar  
    45    22    27 ar  
    46    23    24 ar  
    47    24    25 ar  
    48    24    46 1   
    49    25    26 ar  
    50    25    28 1   
    51    26    27 ar  
    52    26    47 1   
    53    27    48 1   
@<TRIPOS>SUBSTRUCTURE
     1 09E         1 TEMP              0 ****  ****    0 ROOT
