@<TRIPOS>MOLECULE
09E
   49    53     1     0     0
SMALL
bcc


@<TRIPOS>ATOM
      1 C1          -0.3950     0.4570    -0.0330 ca         1 09E      -0.151300
      2 C2           1.1000     0.6340    -0.0470 c3         1 09E      -0.092700
      3 C3          -1.1730    -0.6810     0.0150 ca         1 09E      -0.076000
      4 C4           1.8050     0.0400     1.1740 c3         1 09E      -0.079400
      5 C5          -2.5700    -0.5500     0.0180 ca         1 09E      -0.162000
      6 C6          -2.4020     1.8780    -0.0730 ca         1 09E      -0.166000
      7 C7           2.5510    -1.2100     0.6500 c3         1 09E       0.127500
      8 C8          -3.1670     0.7060    -0.0260 ca         1 09E      -0.088000
      9 C9           3.9920    -1.2180     1.1380 c          1 09E       0.646100
     10 N1           2.5030    -1.2160    -0.8150 n7         1 09E      -0.796200
     11 O1           4.6190    -0.3410     1.7280 o          1 09E      -0.525000
     12 C10          1.7900    -0.0280    -1.2640 c3         1 09E       0.167800
     13 C11          1.2500     2.1760    -0.1020 c          1 09E       0.709500
     14 O2           2.2980     2.8250    -0.1370 o          1 09E      -0.582500
     15 N2          -0.0330     2.7530    -0.1200 ns         1 09E      -0.480100
     16 C12         -1.0140     1.7510    -0.0760 ca         1 09E       0.067600
     17 C13          5.9950    -2.5430     1.2360 c3         1 09E       0.175400
     18 C14          6.1040    -2.9480     2.7010 c3         1 09E      -0.074400
     19 O3           4.5990    -2.4210     0.8950 os         1 09E      -0.428900
     20 C15          7.5220    -3.3250     3.0400 c3         1 09E      -0.316600
     21 S1           8.0060    -4.7780     2.2930 sy         1 09E       1.383300
     22 C16          7.5300    -4.4900     0.7010 ca         1 09E      -0.343500
     23 C17          6.5900    -3.5400     0.2800 ca         1 09E       0.030700
     24 C18          6.2240    -3.4510    -1.0690 ca         1 09E      -0.110000
     25 C19          6.8050    -4.2970    -2.0140 ca         1 09E       0.028100
     26 C20          7.7670    -5.2290    -1.6130 ca         1 09E      -0.122000
     27 C21          8.1170    -5.3150    -0.2710 ca         1 09E      -0.030000
     28 Br1          6.3060    -4.1790    -3.8140 br         1 09E      -0.067100
     29 O4           9.4020    -4.8870     2.3560 o          1 09E      -0.649300
     30 O5           7.2780    -5.8430     2.8360 o          1 09E      -0.649300
     31 H1          -0.7110    -1.6790     0.0520 ha         1 09E       0.133000
     32 H2           2.5310     0.7790     1.6040 hc         1 09E       0.088200
     33 H3           1.0740    -0.2500     1.9670 hc         1 09E       0.088200
     34 H4          -3.1960    -1.4530     0.0550 ha         1 09E       0.138000
     35 H5          -2.8880     2.8620    -0.1050 ha         1 09E       0.143000
     36 H6           2.0780    -2.1440     1.0760 h1         1 09E       0.072700
     37 H7          -4.2650     0.7880    -0.0220 ha         1 09E       0.138000
     38 H8           2.0680    -2.0560    -1.1450 hn         1 09E       0.372800
     39 H10          2.5550     0.6840    -1.6850 h1         1 09E       0.073700
     40 H11          1.0430    -0.2710    -2.0650 h1         1 09E       0.073700
     41 H12         -0.2220     3.7210    -0.1380 hn         1 09E       0.344500
     42 H13          6.5050    -1.5460     1.0770 h1         1 09E       0.095700
     43 H15          5.4140    -3.8090     2.9130 hc         1 09E       0.079200
     44 H16          7.6010    -3.4280     4.1580 h1         1 09E       0.124200
     45 H17          8.2070    -2.4740     2.7790 h1         1 09E       0.124200
     46 H18          5.4640    -2.7070    -1.3670 ha         1 09E       0.172000
     47 H19          8.2470    -5.8950    -2.3480 ha         1 09E       0.158000
     48 H20          8.8840    -6.0480     0.0410 ha         1 09E       0.159000
     49 H14          5.7640    -2.0820     3.3280 hc         1 09E       0.079200
@<TRIPOS>BOND
     1     1     2 1   
     2     1     3 ar  
     3     1    16 ar  
     4     2     4 1   
     5     2    12 1   
     6     2    13 1   
     7     3     5 ar  
     8     3    31 1   
     9     4     7 1   
    10     4    32 1   
    11     4    33 1   
    12     5     8 ar  
    13     5    34 1   
    14     6     8 ar  
    15     6    16 ar  
    16     6    35 1   
    17     7     9 1   
    18     7    10 1   
    19     7    36 1   
    20     8    37 1   
    21     9    11 2   
    22     9    19 1   
    23    10    12 1   
    24    10    38 1   
    25    12    39 1   
    26    12    40 1   
    27    13    14 2   
    28    13    15 1   
    29    15    16 1   
    30    15    41 1   
    31    17    18 1   
    32    17    19 1   
    33    17    23 1   
    34    17    42 1   
    35    18    20 1   
    36    18    43 1   
    37    18    49 1   
    38    20    21 1   
    39    20    44 1   
    40    20    45 1   
    41    21    22 1   
    42    21    29 2   
    43    21    30 2   
    44    22    23 ar  
    45    22    27 ar  
    46    23    24 ar  
    47    24    25 ar  
    48    24    46 1   
    49    25    26 ar  
    50    25    28 1   
    51    26    27 ar  
    52    26    47 1   
    53    27    48 1   
@<TRIPOS>SUBSTRUCTURE
     1 09E         1 TEMP              0 ****  ****    0 ROOT
