@<TRIPOS>MOLECULE
molecule
   49    53     1     0     0
SMALL
bcc


@<TRIPOS>ATOM
      1 C1           0.0000     0.0000     0.0000 ca         1 09E      -0.148300
      2 C2           1.5020     0.0000     0.0000 c3         1 09E      -0.105700
      3 C3          -0.9490     0.0070    -0.9990 ca         1 09E      -0.075000
      4 C4           2.0640    -1.2250    -0.7310 c3         1 09E      -0.045400
      5 C5          -2.2940     0.0030    -0.6760 ca         1 09E      -0.154000
      6 C6          -1.7370    -0.0130     1.6550 ca         1 09E      -0.157000
      7 C7           2.9300    -0.6390    -1.8700 c3         1 09E       0.105500
      8 C8          -2.6830    -0.0080     0.6510 ca         1 09E      -0.089000
      9 C9           4.1680    -1.4740    -2.0720 c          1 09E       0.625100
     10 N1           3.2950     0.7240    -1.4010 n7         1 09E      -0.756200
     11 O1           5.2220    -1.1150    -1.6040 o          1 09E      -0.499000
     12 C10          2.0640     1.2260    -0.7320 c3         1 09E       0.170800
     13 C11          1.8930     0.0000     1.4520 c          1 09E       0.720500
     14 O2           3.0220     0.0030     1.8980 o          1 09E      -0.572500
     15 N2           0.7490    -0.0030     2.1610 ns         1 09E      -0.466100
     16 C12         -0.3800    -0.0040     1.3390 ca         1 09E       0.060600
     17 C13          5.3310    -3.3700    -2.9290 c3         1 09E       0.182400
     18 C14          4.9960    -4.8510    -2.9290 c3         1 09E      -0.064400
     19 O3           4.0990    -2.6170    -2.7740 os         1 09E      -0.423900
     20 C15          6.2980    -5.6600    -3.0310 c3         1 09E      -0.198600
     21 S1           6.9280    -5.4440    -4.7230 sy         1 09E       1.184300
     22 C16          6.7550    -3.7110    -5.0140 ca         1 09E      -0.251500
     23 C17          6.0250    -2.9030    -4.1740 ca         1 09E      -0.018300
     24 C18          5.9100    -1.5470    -4.4780 ca         1 09E      -0.107000
     25 C19          6.5240    -1.0160    -5.5910 ca         1 09E       0.029100
     26 C20          7.2680    -1.8320    -6.4250 ca         1 09E      -0.114000
     27 C21          7.3760    -3.1760    -6.1340 ca         1 09E      -0.024000
     28 Br1          6.3520     0.8280    -5.9800 br         1 09E      -0.082100
     29 O4           8.3290    -5.6730    -4.7700 o          1 09E      -0.608300
     30 O5           6.0520    -6.0520    -5.6640 o          1 09E      -0.608300
     31 H1          -0.6420     0.0160    -2.0370 ha         1 09E       0.132000
     32 H2           1.2580    -1.8220    -1.1400 hc         1 09E       0.072700
     33 H3           2.6760    -1.8160    -0.0600 hc         1 09E       0.072700
     34 H4          -3.0410     0.0080    -1.4610 ha         1 09E       0.138000
     35 H5          -2.0500    -0.0220     2.6930 ha         1 09E       0.135000
     36 H6           2.3540    -0.5790    -2.7860 h1         1 09E       0.053700
     37 H7          -3.7370    -0.0110     0.9040 ha         1 09E       0.138000
     38 H8           3.5050     1.3030    -2.1900 hn         1 09E       0.358800
     39 H10          2.3130     2.0070    -0.0240 h1         1 09E       0.058200
     40 H11          1.3550     1.5840    -1.4680 h1         1 09E       0.058200
     41 H12          0.7110    -0.0030     3.1610 hn         1 09E       0.339500
     42 H13          5.9750    -3.1650    -2.0820 h1         1 09E       0.093700
     43 H15          4.4840    -5.1060    -2.0100 hc         1 09E       0.077200
     44 H16          6.0820    -6.7080    -2.8610 h1         1 09E       0.111200
     45 H17          7.0210    -5.2640    -2.3280 h1         1 09E       0.111200
     46 H18          5.3300    -0.9010    -3.8300 ha         1 09E       0.153000
     47 H19          7.7530    -1.4220    -7.3020 ha         1 09E       0.153000
     48 H20          7.9570    -3.8200    -6.7830 ha         1 09E       0.153000
     49 H14          4.3630    -5.0780    -3.7780 hc         1 09E       0.077200
@<TRIPOS>BOND
     1    10     7 1   
     2    10    12 1   
     3     3     5 ar  
     4     3     1 ar  
     5     5     8 ar  
     6     7     4 1   
     7     7     9 1   
     8    12     2 1   
     9     8     6 ar  
    10    11     9 2   
    11     4     2 1   
    12     1     2 1   
    13     1    16 ar  
    14     9    19 1   
    15    28    25 1   
    16     2    13 1   
    17    19    17 1   
    18     6    16 ar  
    19    16    15 1   
    20    24    25 ar  
    21    24    23 ar  
    22    25    26 ar  
    23    17    23 1   
    24    17    18 1   
    25    13    15 1   
    26    13    14 2   
    27    23    22 ar  
    28    18    20 1   
    29    26    27 ar  
    30    22    27 ar  
    31    22    21 1   
    32    20    21 1   
    33    21    29 2   
    34    21    30 2   
    35     3    31 1   
    36     4    32 1   
    37     4    33 1   
    38     5    34 1   
    39     6    35 1   
    40     7    36 1   
    41     8    37 1   
    42    10    38 1   
    43    12    39 1   
    44    12    40 1   
    45    15    41 1   
    46    17    42 1   
    47    18    49 1   
    48    18    43 1   
    49    20    44 1   
    50    20    45 1   
    51    24    46 1   
    52    26    47 1   
    53    27    48 1   
@<TRIPOS>SUBSTRUCTURE
     1 09E         1 TEMP              0 ****  ****    0 ROOT
