@<TRIPOS>MOLECULE
09F
   46    49     1     0     0
SMALL
bcc


@<TRIPOS>ATOM
      1 C24          1.4320     0.7250    -0.5950 c1         1 09F       0.199700
      2 C5           0.7520    -8.2610    -2.2920 ca         1 09F      -0.162000
      3 C8           1.6190    -8.9180    -1.4250 ca         1 09F      -0.090000
      4 C3           0.3010    -6.9620    -2.0100 ca         1 09F      -0.072000
      5 C6           2.0700    -8.3150    -0.2440 ca         1 09F      -0.166000
      6 C1           0.7310    -6.3450    -0.8540 ca         1 09F      -0.143300
      7 C17          1.6230    -7.0270     0.0410 ca         1 09F       0.062600
      8 C14          1.2460    -4.9790     1.0250 c          1 09F       0.703500
      9 C9          -0.1540    -1.5470    -1.4770 c          1 09F       0.630100
     10 C21         -0.9190     2.9180     1.1270 c3         1 09F      -0.082400
     11 C20          0.1550     2.0980     1.8120 c3         1 09F      -0.079400
     12 C22         -0.8600     2.7450    -0.3760 c3         1 09F      -0.079400
     13 C19          0.0510     0.6330     1.4490 c3         1 09F      -0.085400
     14 C23         -0.9690     1.2890    -0.7750 c3         1 09F      -0.085400
     15 C4           0.8420    -3.8280    -1.2070 c3         1 09F      -0.080400
     16 C13         -1.0790    -4.7640    -0.0010 c3         1 09F       0.165800
     17 C7          -0.4600    -3.0330    -1.4790 c3         1 09F       0.118500
     18 C18          0.0950     0.4340    -0.0770 c3         1 09F       0.247900
     19 C2           0.4260    -4.9830    -0.2930 c3         1 09F      -0.090700
     20 N25          2.4940     0.9620    -1.0020 n1         1 09F      -0.347800
     21 N16          1.9140    -6.2100     1.1460 ns         1 09F      -0.479100
     22 N10         -1.5020    -3.4800    -0.5510 n7         1 09F      -0.782200
     23 O12          0.1420    -0.8670    -2.4580 o          1 09F      -0.519000
     24 O11         -0.2090    -0.9720    -0.2400 os         1 09F      -0.436900
     25 H1           0.4140    -8.7600    -3.2120 ha         1 09F       0.138000
     26 H2           1.9620    -9.9360    -1.6650 ha         1 09F       0.137000
     27 H3          -0.3850    -6.4490    -2.7000 ha         1 09F       0.142000
     28 H4           2.7530    -8.8470     0.4310 ha         1 09F       0.142000
     29 H5          -1.9280     2.6050     1.5030 hc         1 09F       0.045200
     30 H6          -0.7840     4.0010     1.3850 hc         1 09F       0.045200
     31 H7           1.1670     2.4860     1.5200 hc         1 09F       0.051450
     32 H8           0.0600     2.2040     2.9240 hc         1 09F       0.051450
     33 H9          -1.6970     3.3170    -0.8550 hc         1 09F       0.051450
     34 H10          0.1040     3.1680    -0.7650 hc         1 09F       0.051450
     35 H11         -0.9180     0.2080     1.8230 hc         1 09F       0.068950
     36 H12          0.8830     0.0520     1.9220 hc         1 09F       0.068950
     37 H13         -0.8590     1.1860    -1.8870 hc         1 09F       0.068950
     38 H14         -1.9750     0.8860    -0.4870 hc         1 09F       0.068950
     39 H15          1.2710    -4.2060    -2.1670 hc         1 09F       0.079200
     40 H16          1.6040    -3.1800    -0.7050 hc         1 09F       0.079200
     41 H17         -1.2850    -4.8250     1.1000 h1         1 09F       0.068700
     42 H18         -1.6740    -5.5650    -0.5220 h1         1 09F       0.068700
     43 H19         -0.8340    -3.2690    -2.5210 h1         1 09F       0.099700
     44 H20          2.5190    -6.4610     1.8830 hn         1 09F       0.343500
     45 H21         -1.6330    -2.8070     0.1840 hn         1 09F       0.376800
     46 O15          1.3180    -4.0710     1.8590 o          1 09F      -0.596500
@<TRIPOS>BOND
     1     1    18 1   
     2     1    20 3   
     3     2     3 ar  
     4     2     4 ar  
     5     2    25 1   
     6     3     5 ar  
     7     3    26 1   
     8     4     6 ar  
     9     4    27 1   
    10     5     7 ar  
    11     5    28 1   
    12     6     7 ar  
    13     6    19 1   
    14     7    21 1   
    15     8    19 1   
    16     8    21 1   
    17     8    46 2   
    18     9    17 1   
    19     9    23 2   
    20     9    24 1   
    21    10    11 1   
    22    10    12 1   
    23    10    29 1   
    24    10    30 1   
    25    11    13 1   
    26    11    31 1   
    27    11    32 1   
    28    12    14 1   
    29    12    33 1   
    30    12    34 1   
    31    13    18 1   
    32    13    35 1   
    33    13    36 1   
    34    14    18 1   
    35    14    37 1   
    36    14    38 1   
    37    15    17 1   
    38    15    19 1   
    39    15    39 1   
    40    15    40 1   
    41    16    19 1   
    42    16    22 1   
    43    16    41 1   
    44    16    42 1   
    45    17    22 1   
    46    17    43 1   
    47    18    24 1   
    48    21    44 1   
    49    22    45 1   
@<TRIPOS>SUBSTRUCTURE
     1 09F         1 TEMP              0 ****  ****    0 ROOT
