@<TRIPOS>MOLECULE
09F
   46    50     1     0     0
SMALL
bcc


@<TRIPOS>ATOM
      1 C24          1.4720     0.0000     0.0000 c1         1 09F      -0.192000
      2 C5          -2.8630    -6.0700    -4.5520 ca         1 09F      -0.124000
      3 C8          -2.1820    -6.8400    -5.4790 ca         1 09F      -0.081000
      4 C3          -2.1980    -5.5820    -3.4410 ca         1 09F      -0.018000
      5 C6          -0.8460    -7.1260    -5.2980 ca         1 09F      -0.145000
      6 C1          -0.8620    -5.8620    -3.2590 ca         1 09F      -0.190000
      7 C17         -0.1700    -6.6440    -4.1790 ca         1 09F      -0.041000
      8 C14          1.4230    -6.1440    -2.6310 c2         1 09F       0.283000
      9 C9          -0.1220    -2.3740    -0.1730 c2         1 09F       0.345000
     10 C21         -0.5110     2.4990     1.4410 c3         1 09F      -0.090000
     11 C20         -0.0000     1.2500     2.1630 c3         1 09F      -0.118000
     12 C22         -0.0010     2.4980    -0.0010 c3         1 09F      -0.118000
     13 C19         -0.5100     0.0000     1.4420 c3         1 09F      -0.147500
     14 C23         -0.5100     1.2490    -0.7220 c3         1 09F      -0.147500
     15 C4           0.2890    -3.9770    -2.0680 c3         1 09F      -0.123000
     16 C13         -0.3040    -6.0000    -0.8160 c3         1 09F      -0.597000
     17 C7          -0.5870    -3.6480    -0.8300 c3         1 09F      -0.149000
     18 C18          0.0000     0.0000     0.0000 c3         1 09F       0.242000
     19 C2           0.1350    -5.5010    -2.1960 c3         1 09F       0.131000
     20 N25          2.6080     0.0070     0.0180 n1         1 09F      -0.008000
     21 N16          1.1630    -6.7880    -3.7850 ns         1 09F      -0.040000
     22 N10         -0.3620    -4.8120     0.0670 ny         1 09F       0.312000
     23 O12          0.2310    -2.5480     1.2240 o          1 09F      -0.435000
     24 O11         -0.4840    -1.1870    -0.6840 os         1 09F      -0.173000
     25 H1          -3.7880    -5.8620    -5.0770 ha         1 09F       0.117000
     26 H2          -2.5230    -7.1180    -6.4690 ha         1 09F       0.104000
     27 H3          -2.5220    -5.1440    -2.5040 ha         1 09F       0.100000
     28 H4          -0.2440    -7.5610    -6.0870 ha         1 09F       0.106000
     29 H5          -1.5360     2.6940     1.1500 hc         1 09F       0.052000
     30 H6          -0.3770     3.4780     1.8830 hc         1 09F       0.052000
     31 H7          -0.4560     1.4460     3.1260 hc         1 09F       0.065250
     32 H8           0.8130     1.4540     2.8500 hc         1 09F       0.065250
     33 H9          -0.1150     3.1800    -0.8350 hc         1 09F       0.065250
     34 H10          1.0630     2.6150     0.1670 hc         1 09F       0.065250
     35 H11         -1.5500    -0.1700     1.1880 hc         1 09F       0.099500
     36 H12         -0.0150    -0.9220     1.7190 hc         1 09F       0.099500
     37 H13          0.1530     0.9690    -1.5320 hc         1 09F       0.099500
     38 H14         -1.5110     1.5560    -0.9990 hc         1 09F       0.099500
     39 H15         -0.2710    -3.4440    -2.8260 hc         1 09F       0.081000
     40 H16          1.1970    -3.3860    -2.0850 hc         1 09F       0.081000
     41 H17         -1.2470    -6.5230    -0.7120 hx         1 09F       0.132000
     42 H18         -0.2120    -5.3770     0.0650 DU         1 09F       0.188000
     43 H19         -1.6310    -3.5820    -1.1110 hx         1 09F       0.119000
     44 H20          1.9860    -7.2200    -4.1570 hn         1 09F       0.150000
     45 H21          0.5660    -4.7490     0.4370 hn         1 09F       0.034000
     46 O15          2.5430    -6.4020    -2.6270 o          1 09F      -0.350000
@<TRIPOS>BOND
     1     1    18 1   
     2     1    20 1   
     3     2     3 1   
     4     2     4 1   
     5     2    25 1   
     6     3     5 1   
     7     3    26 1   
     8     4     6 1   
     9     4    27 1   
    10     5     7 1   
    11     5    28 1   
    12     6     7 1   
    13     6    19 1   
    14     7    21 1   
    15     8    19 1   
    16     8    21 1   
    17     8    46 1   
    18     9    17 1   
    19     9    23 1   
    20     9    24 1   
    21    10    11 1   
    22    10    12 1   
    23    10    29 1   
    24    10    30 1   
    25    11    13 1   
    26    11    31 1   
    27    11    32 1   
    28    12    14 1   
    29    12    33 1   
    30    12    34 1   
    31    13    18 1   
    32    13    35 1   
    33    13    36 1   
    34    14    18 1   
    35    14    37 1   
    36    14    38 1   
    37    15    17 1   
    38    15    19 1   
    39    15    39 1   
    40    15    40 1   
    41    16    19 1   
    42    16    22 1   
    43    16    41 1   
    44    16    42 1   
    45    17    22 1   
    46    17    43 1   
    47    18    24 1   
    48    21    44 1   
    49    22    42 1   
    50    22    45 1   
@<TRIPOS>SUBSTRUCTURE
     1 09F         1 TEMP              0 ****  ****    0 ROOT
