@<TRIPOS>MOLECULE
molecule
   46    49     1     0     0
SMALL
bcc


@<TRIPOS>ATOM
      1 C24          1.4720     0.0000     0.0000 c1         1 09F       0.192700
      2 C5          -2.8630    -6.0700    -4.5520 ca         1 09F      -0.153000
      3 C8          -2.1820    -6.8400    -5.4790 ca         1 09F      -0.104000
      4 C3          -2.1980    -5.5820    -3.4410 ca         1 09F      -0.055000
      5 C6          -0.8460    -7.1260    -5.2980 ca         1 09F      -0.177000
      6 C1          -0.8620    -5.8620    -3.2590 ca         1 09F      -0.177300
      7 C17         -0.1700    -6.6440    -4.1790 ca         1 09F       0.064600
      8 C14          1.4230    -6.1440    -2.6310 c          1 09F       0.743500
      9 C9          -0.1220    -2.3740    -0.1730 c          1 09F       0.588100
     10 C21         -0.5110     2.4990     1.4410 c3         1 09F      -0.074400
     11 C20         -0.0000     1.2500     2.1630 c3         1 09F      -0.102400
     12 C22         -0.0010     2.4980    -0.0010 c3         1 09F      -0.102400
     13 C19         -0.5100     0.0000     1.4420 c3         1 09F      -0.087400
     14 C23         -0.5100     1.2490    -0.7220 c3         1 09F      -0.087400
     15 C4           0.2890    -3.9770    -2.0680 c3         1 09F      -0.111400
     16 C13         -0.3040    -6.0000    -0.8160 c3         1 09F      -0.274200
     17 C7          -0.5870    -3.6480    -0.8300 c3         1 09F       0.139500
     18 C18          0.0000     0.0000     0.0000 c3         1 09F       0.209900
     19 C2           0.1350    -5.5010    -2.1960 c3         1 09F       0.029300
     20 N25          2.6080     0.0070     0.0180 n1         1 09F      -0.327800
     21 N16          1.1630    -6.7880    -3.7850 ns         1 09F      -0.534100
     22 N10         -0.3620    -4.8120     0.0670 n7         1 09F      -0.730200
     23 O12          0.2310    -2.5480     1.2240 o          1 09F      -0.598000
     24 O11         -0.4840    -1.1870    -0.6840 os         1 09F      -0.344900
     25 H1          -3.7880    -5.8620    -5.0770 ha         1 09F       0.143000
     26 H2          -2.5230    -7.1180    -6.4690 ha         1 09F       0.134000
     27 H3          -2.5220    -5.1440    -2.5040 ha         1 09F       0.128000
     28 H4          -0.2440    -7.5610    -6.0870 ha         1 09F       0.131000
     29 H5          -1.5360     2.6940     1.1500 hc         1 09F       0.042200
     30 H6          -0.3770     3.4780     1.8830 hc         1 09F       0.042200
     31 H7          -0.4560     1.4460     3.1260 hc         1 09F       0.058700
     32 H8           0.8130     1.4540     2.8500 hc         1 09F       0.058700
     33 H9          -0.1150     3.1800    -0.8350 hc         1 09F       0.058700
     34 H10          1.0630     2.6150     0.1670 hc         1 09F       0.058700
     35 H11         -1.5500    -0.1700     1.1880 hc         1 09F       0.085200
     36 H12         -0.0150    -0.9220     1.7190 hc         1 09F       0.085200
     37 H13          0.1530     0.9690    -1.5320 hc         1 09F       0.085200
     38 H14         -1.5110     1.5560    -0.9990 hc         1 09F       0.085200
     39 H15         -0.2710    -3.4440    -2.8260 hc         1 09F       0.077700
     40 H16          1.1970    -3.3860    -2.0850 hc         1 09F       0.077700
     41 H17         -1.2470    -6.5230    -0.7120 h1         1 09F       0.209700
     42 H18         -0.2120    -5.3770     0.0650 h1         1 09F       0.209700
     43 H19         -1.6310    -3.5820    -1.1110 h1         1 09F       0.119700
     44 H20          1.9860    -7.2200    -4.1570 hn         1 09F       0.359500
     45 H21          0.5660    -4.7490     0.4370 hn         1 09F       0.401800
     46 O15          2.5430    -6.4020    -2.6270 o          1 09F      -0.579500
@<TRIPOS>BOND
     1    22    17 1
     2    22    16 1
     3     4     2 ar
     4     4     6 ar
     5     2     3 ar
     6    17    15 1
     7    17     9 1
     8    16    19 1
     9    15    19 1
    10     6    19 1
    11     6     7 ar
    12    19     8 1
    13     3     5 ar
    14     9    24 1
    15     9    23 2
    16    24    18 1
    17    14    18 1
    18    14    12 1
    19     7     5 ar
    20     7    21 1
    21    18    13 1
    22    18     1 1
    23     8    21 1
    24     8    46 2
    25    13    11 1
    26    12    10 1
    27    10    11 1
    28     1    20 3
    29     2    25 1
    30     3    26 1
    31     4    27 1
    32     5    28 1
    33    10    29 1
    34    10    30 1
    35    11    31 1
    36    11    32 1
    37    12    33 1
    38    12    34 1
    39    13    35 1
    40    13    36 1
    41    14    37 1
    42    14    38 1
    43    15    39 1
    44    15    40 1
    45    16    41 1
    46    16    42 1
    47    17    43 1
    48    21    44 1
    49    22    45 1
@<TRIPOS>SUBSTRUCTURE
     1 09F         1 TEMP              0 ****  ****    0 ROOT
