@<TRIPOS>MOLECULE
09G
   43    46     1     0     0
SMALL
bcc


@<TRIPOS>ATOM
      1 C5          -0.3900     0.6240    -0.0840 ca         1 09G      -0.163000
      2 C8           0.6120    -0.1640    -0.6410 ca         1 09G      -0.088000
      3 C23         -0.4370     5.6930     9.8100 ca         1 09G      -0.094000
      4 C3          -0.6200     0.6220     1.3000 ca         1 09G      -0.076000
      5 C24         -0.7410     4.3490     9.6130 ca         1 09G      -0.105000
      6 C6           1.4250    -0.9820     0.1540 ca         1 09G      -0.167000
      7 C20         -2.1470     4.9440     7.7360 ca         1 09G      -0.093000
      8 C22         -0.9850     6.6730     8.9700 ca         1 09G       0.016000
      9 C1           0.1650    -0.1760     2.1060 ca         1 09G      -0.151300
     10 C19         -1.6010     3.9700     8.5770 ca         1 09G      -0.092300
     11 C17          1.2000    -0.9870     1.5290 ca         1 09G       0.067600
     12 C21         -1.8440     6.2950     7.9230 ca         1 09G      -0.000900
     13 C14          1.3100    -1.4060     3.7920 c          1 09G       0.709500
     14 C9          -0.8290     1.5630     6.5060 c          1 09G       0.646100
     15 C4           0.3920     0.8940     4.4020 c3         1 09G      -0.079400
     16 C13         -1.1750    -0.9540     4.1370 c3         1 09G       0.167800
     17 C7          -0.9810     1.2390     5.0270 c3         1 09G       0.127500
     18 C2           0.1600    -0.3860     3.5970 c3         1 09G      -0.092700
     19 C18         -1.9610     2.5320     8.3910 c3         1 09G       0.173700
     20 N26         -0.3770     9.1500     9.3900 n1         1 09G      -0.342800
     21 N16          1.8630    -1.7080     2.5330 ns         1 09G      -0.481100
     22 N10         -1.8890     0.1050     4.8380 n7         1 09G      -0.792200
     23 O15          1.7020    -1.9020     4.8510 o          1 09G      -0.582500
     24 O11         -1.9490     2.1750     7.0040 os         1 09G      -0.434900
     25 Br2         -2.5930     7.5690     6.7740 br         1 09G      -0.061100
     26 H1          -1.0130     1.2580    -0.7320 ha         1 09G       0.138000
     27 H2           0.7770    -0.1490    -1.7300 ha         1 09G       0.137000
     28 H3           0.2400     5.9920    10.6260 ha         1 09G       0.152000
     29 H4          -1.4130     1.2510     1.7300 ha         1 09G       0.133000
     30 H5          -0.2970     3.5850    10.2700 ha         1 09G       0.151000
     31 H6           2.2130    -1.5970    -0.3000 ha         1 09G       0.143000
     32 H7          -2.8170     4.6260     6.9200 ha         1 09G       0.161000
     33 H8           1.1550     0.7150     5.2050 hc         1 09G       0.087700
     34 H9           0.7430     1.7300     3.7510 hc         1 09G       0.087700
     35 H10         -1.7900    -1.3900     3.3070 h1         1 09G       0.073200
     36 H11         -0.9520    -1.7640     4.8890 h1         1 09G       0.073200
     37 H12         -1.3930     2.1750     4.5450 h1         1 09G       0.068700
     38 H13         -1.2800     1.8610     8.9790 h1         1 09G       0.081200
     39 H14         -3.0320     2.3610     8.6960 h1         1 09G       0.081200
     40 H15          2.6230    -2.3160     2.3760 hn         1 09G       0.344500
     41 H16         -2.7060     0.3950     4.3370 hn         1 09G       0.369800
     42 O12          0.1330     1.3770     7.2460 o          1 09G      -0.523000
     43 C25         -0.6550     8.0380     9.1940 cg         1 09G       0.228800
@<TRIPOS>BOND
     1     1     2 ar  
     2     1     4 ar  
     3     1    26 1   
     4     2     6 ar  
     5     2    27 1   
     6     3     5 ar  
     7     3     8 ar  
     8     3    28 1   
     9     4     9 ar  
    10     4    29 1   
    11     5    10 ar  
    12     5    30 1   
    13     6    11 ar  
    14     6    31 1   
    15     7    10 ar  
    16     7    12 ar  
    17     7    32 1   
    18     8    12 ar  
    19     8    43 1   
    20     9    11 ar  
    21     9    18 1   
    22    10    19 1   
    23    11    21 1   
    24    12    25 1   
    25    13    18 1   
    26    13    21 1   
    27    13    23 2   
    28    14    17 1   
    29    14    24 1   
    30    14    42 2   
    31    15    17 1   
    32    15    18 1   
    33    15    33 1   
    34    15    34 1   
    35    16    18 1   
    36    16    22 1   
    37    16    35 1   
    38    16    36 1   
    39    17    22 1   
    40    17    37 1   
    41    19    24 1   
    42    19    38 1   
    43    19    39 1   
    44    20    43 3   
    45    21    40 1   
    46    22    41 1   
@<TRIPOS>SUBSTRUCTURE
     1 09G         1 TEMP              0 ****  ****    0 ROOT
