@<TRIPOS>MOLECULE
molecule
   43    46     1     0     0
SMALL
bcc


@<TRIPOS>ATOM
      1 C5           0.0000     0.0000     0.0000 ca         1 09G      -0.153000
      2 C8           1.3840     0.0000     0.0000 ca         1 09G      -0.089000
      3 C23         -5.1390     6.9810     4.1460 ca         1 09G      -0.093000
      4 C3          -0.6880     0.0050     1.2000 ca         1 09G      -0.075000
      5 C24         -4.7320     5.8310     4.7910 ca         1 09G      -0.099000
      6 C6           2.0800     0.0000     1.1910 ca         1 09G      -0.157000
      7 C20         -6.6280     4.6490     3.9120 ca         1 09G      -0.085000
      8 C22         -6.3070     6.9710     3.3790 ca         1 09G       0.018000
      9 C1           0.0020     0.0090     2.3910 ca         1 09G      -0.147300
     10 C19         -5.4740     4.6690     4.6750 ca         1 09G      -0.075300
     11 C17          1.3940    -0.0010     2.4030 ca         1 09G       0.065600
     12 C21         -7.0510     5.7940     3.2650 ca         1 09G       0.004100
     13 C14          0.8620     0.0200     4.6170 c          1 09G       0.718500
     14 C9          -3.6420     1.5110     4.9790 c          1 09G       0.630100
     15 C4          -1.2790     1.2470     4.1590 c3         1 09G      -0.042400
     16 C13         -1.2830    -1.2040     4.1720 c3         1 09G       0.185800
     17 C7          -2.7210     0.6760     4.1270 c3         1 09G       0.116500
     18 C2          -0.4210     0.0140     3.8320 c3         1 09G      -0.112700
     19 C18         -5.0180     3.4150     5.3770 c3         1 09G       0.194700
     20 N26         -7.0990     9.1050     2.1900 n1         1 09G      -0.337800
     21 N16          1.8650     0.0080     3.7180 ns         1 09G      -0.466100
     22 N10         -2.5650    -0.6850     4.7040 n7         1 09G      -0.785200
     23 O15          0.9730     0.0310     5.8250 o          1 09G      -0.582500
     24 O11         -4.1390     2.6630     4.5010 os         1 09G      -0.432900
     25 Br2         -8.6280     5.7660     2.2220 br         1 09G      -0.064100
     26 H1          -0.5420    -0.0000    -0.9380 ha         1 09G       0.138000
     27 H2           1.9260    -0.0040    -0.9380 ha         1 09G       0.138000
     28 H3          -4.5570     7.8900     4.2390 ha         1 09G       0.151000
     29 H4          -1.7710     0.0050     1.2030 ha         1 09G       0.132000
     30 H5          -3.8270     5.8360     5.3870 ha         1 09G       0.147000
     31 H6           3.1630    -0.0000     1.1850 ha         1 09G       0.136000
     32 H7          -7.2050     3.7360     3.8250 ha         1 09G       0.155000
     33 H8          -1.1090     1.7770     5.0880 hc         1 09G       0.075200
     34 H9          -1.1190     1.9020     3.3120 hc         1 09G       0.075200
     35 H10         -0.7290    -1.8900     4.8020 h1         1 09G       0.054200
     36 H11         -1.6060    -1.6980     3.2640 h1         1 09G       0.054200
     37 H12         -3.0830     0.6170     3.1070 h1         1 09G       0.050700
     38 H13         -5.8740     2.7830     5.5780 h1         1 09G       0.062200
     39 H14         -4.5380     3.6790     6.3110 h1         1 09G       0.062200
     40 H15          2.8240     0.0020     4.0060 hn         1 09G       0.340500
     41 H16         -3.3120    -1.2880     4.4210 hn         1 09G       0.365800
     42 O12         -3.9330     1.1440     6.0930 o          1 09G      -0.507000
     43 C25         -6.7380     8.1630     2.7120 cg         1 09G       0.231800
@<TRIPOS>BOND
     1    22    17 1   
     2    22    16 1   
     3     4     1 ar  
     4     4     9 ar  
     5     1     2 ar  
     6    17    15 1   
     7    17    14 1   
     8    16    18 1   
     9    15    18 1   
    10     9    18 1   
    11     9    11 ar  
    12     2     6 ar  
    13    14    42 2   
    14    14    24 1   
    15    18    13 1   
    16    24    19 1   
    17    25    12 1   
    18    11     6 ar  
    19    11    21 1   
    20     7    12 ar  
    21     7    10 ar  
    22    19    10 1   
    23    13    21 1   
    24    13    23 2   
    25    12     8 ar  
    26    10     5 ar  
    27     8    43 1   
    28     8     3 ar  
    29     5     3 ar  
    30    43    20 3   
    31     1    26 1   
    32     2    27 1   
    33     3    28 1   
    34     4    29 1   
    35     5    30 1   
    36     6    31 1   
    37     7    32 1   
    38    15    33 1   
    39    15    34 1   
    40    16    35 1   
    41    16    36 1   
    42    17    37 1   
    43    19    38 1   
    44    19    39 1   
    45    21    40 1   
    46    22    41 1   
@<TRIPOS>SUBSTRUCTURE
     1 09G         1 TEMP              0 ****  ****    0 ROOT
