@<TRIPOS>MOLECULE
09G
   43    46     1     0     0
SMALL
bcc


@<TRIPOS>ATOM
      1 C5           0.0000     0.0000     0.0000 ca         1 09G      -0.124000
      2 C8           1.3840     0.0000     0.0000 ca         1 09G      -0.062000
      3 C23         -5.1390     6.9810     4.1460 ca         1 09G      -0.074000
      4 C3          -0.6880     0.0050     1.2000 ca         1 09G      -0.040000
      5 C24         -4.7320     5.8310     4.7910 ca         1 09G      -0.070000
      6 C6           2.0800     0.0000     1.1910 ca         1 09G      -0.120000
      7 C20         -6.6280     4.6490     3.9120 ca         1 09G      -0.059000
      8 C22         -6.3070     6.9710     3.3790 ca         1 09G       0.062000
      9 C1           0.0020     0.0090     2.3910 ca         1 09G      -0.152300
     10 C19         -5.4740     4.6690     4.6750 ca         1 09G      -0.094300
     11 C17          1.3940    -0.0010     2.4030 ca         1 09G      -0.085400
     12 C21         -7.0510     5.7940     3.2650 ca         1 09G       0.037100
     13 C14          0.8620     0.0200     4.6170 c          1 09G       0.619500
     14 C9          -3.6420     1.5110     4.9790 c          1 09G       0.686100
     15 C4          -1.2790     1.2470     4.1590 c3         1 09G       0.011600
     16 C13         -1.2830    -1.2040     4.1720 c3         1 09G       0.175800
     17 C7          -2.7210     0.6760     4.1270 c3         1 09G       0.070500
     18 C2          -0.4210     0.0140     3.8320 c3         1 09G      -0.101700
     19 C18         -5.0180     3.4150     5.3770 c3         1 09G       0.282700
     20 N26         -7.0990     9.1050     2.1900 n1         1 09G      -0.358800
     21 N16          1.8650     0.0080     3.7180 ns         1 09G      -0.017100
     22 N10         -2.5650    -0.6850     4.7040 n7         1 09G      -0.543200
     23 O15          0.9730     0.0310     5.8250 o          1 09G      -0.622500
     24 O11         -4.1390     2.6630     4.5010 os         1 09G      -0.416900
     25 Br2         -8.6280     5.7660     2.2220 br         1 09G      -0.090100
     26 H1          -0.5420    -0.0000    -0.9380 ha         1 09G       0.110000
     27 H2           1.9260    -0.0040    -0.9380 ha         1 09G       0.106000
     28 H3          -4.5570     7.8900     4.2390 ha         1 09G       0.119000
     29 H4          -1.7710     0.0050     1.2030 ha         1 09G       0.103000
     30 H5          -3.8270     5.8360     5.3870 ha         1 09G       0.116000
     31 H6           3.1630    -0.0000     1.1850 ha         1 09G       0.108000
     32 H7          -7.2050     3.7360     3.8250 ha         1 09G       0.126000
     33 H8          -1.1090     1.7770     5.0880 hc         1 09G       0.040700
     34 H9          -1.1190     1.9020     3.3120 hc         1 09G       0.040700
     35 H10         -0.7290    -1.8900     4.8020 h1         1 09G       0.020200
     36 H11         -1.6060    -1.6980     3.2640 h1         1 09G       0.020200
     37 H12         -3.0830     0.6170     3.1070 h1         1 09G       0.024700
     38 H13         -5.8740     2.7830     5.5780 h1         1 09G       0.019200
     39 H14         -4.5380     3.6790     6.3110 h1         1 09G       0.019200
     40 H15          2.8240     0.0020     4.0060 hn         1 09G       0.179500
     41 H16         -3.3120    -1.2880     4.4210 hn         1 09G       0.257800
     42 O12         -3.9330     1.1440     6.0930 o          1 09G      -0.546000
     43 C25         -6.7380     8.1630     2.7120 cg         1 09G       0.221800
@<TRIPOS>BOND
     1     1     2 ar  
     2     1     4 ar  
     3     1    26 1   
     4     2     6 ar  
     5     2    27 1   
     6     3     5 ar  
     7     3     8 ar  
     8     3    28 1   
     9     4     9 ar  
    10     4    29 1   
    11     5    10 ar  
    12     5    30 1   
    13     6    11 ar  
    14     6    31 1   
    15     7    10 ar  
    16     7    12 ar  
    17     7    32 1   
    18     8    12 ar  
    19     8    43 1   
    20     9    11 ar  
    21     9    18 1   
    22    10    19 1   
    23    11    21 1   
    24    12    25 1   
    25    13    18 1   
    26    13    21 1   
    27    13    23 2   
    28    14    17 1   
    29    14    24 1   
    30    14    42 2   
    31    15    17 1   
    32    15    18 1   
    33    15    33 1   
    34    15    34 1   
    35    16    18 1   
    36    16    22 1   
    37    16    35 1   
    38    16    36 1   
    39    17    22 1   
    40    17    37 1   
    41    19    24 1   
    42    19    38 1   
    43    19    39 1   
    44    20    43 3   
    45    21    40 1   
    46    22    41 1   
@<TRIPOS>SUBSTRUCTURE
     1 09G         1 TEMP              0 ****  ****    0 ROOT
