@<TRIPOS>MOLECULE
09H
   51    55     1     0     0
SMALL
bcc


@<TRIPOS>ATOM
      1 C01          0.0000     0.0000     0.0000 ca         1 09H      -0.112000
      2 C02          1.3830     0.0000     0.0000 ca         1 09H      -0.079000
      3 C03          2.0780     0.0000     1.1950 ca         1 09H      -0.121000
      4 C04          1.3890    -0.0000     2.3980 ca         1 09H      -0.066400
      5 C05         -0.0050    -0.0010     2.3980 ca         1 09H      -0.029400
      6 C06         -0.6950    -0.0010     1.1960 ca         1 09H      -0.115000
      7 N07         -0.7070    -0.0010     3.6090 nh         1 09H      -0.409000
      8 C08         -1.5650    -1.1890     3.7200 c3         1 09H       0.147800
      9 C09         -2.2520    -1.1940     5.0880 c3         1 09H       0.144800
     10 N10         -3.0400     0.0370     5.2410 n7         1 09H      -0.584200
     11 C11         -2.1820     1.2250     5.1290 c3         1 09H       0.144800
     12 C12         -1.4950     1.2300     3.7610 c3         1 09H       0.147800
     13 N13          2.0920    -0.0010     3.6100 ns         1 09H       0.009900
     14 C14          3.3470     0.4890     3.6610 c          1 09H       0.490600
     15 O15          3.8330     1.0220     2.6820 o          1 09H      -0.648100
     16 C16          4.1300     0.3780     4.9040 cc         1 09H       0.255800
     17 N17          3.6490    -0.1940     5.9990 nc         1 09H      -0.563000
     18 C18          4.4500    -0.2230     7.0210 cd         1 09H       0.528900
     19 S19          5.9750     0.5440     6.5880 ss         1 09H      -0.284300
     20 C20          5.3940     0.8470     5.0090 cd         1 09H      -0.060400
     21 C21          4.1320    -0.8060     8.3420 ca         1 09H      -0.172500
     22 C22          2.8860    -1.3940     8.5690 ca         1 09H      -0.028000
     23 C23          2.5900    -1.9330     9.8000 ca         1 09H      -0.131000
     24 C24          3.5280    -1.8980    10.8300 ca         1 09H       0.154100
     25 C25          4.7700    -1.3190    10.5950 ca         1 09H      -0.191300
     26 C26          5.0770    -0.7780     9.3690 ca         1 09H      -0.027000
     27 O27          3.4320    -2.3520    12.1110 os         1 09H      -0.297900
     28 C28          4.7520    -2.5030    12.6600 c3         1 09H       0.209400
     29 C29          5.5710    -1.4500    11.8770 c3         1 09H       0.010900
     30 H1          -0.5400    -0.0000    -0.9390 ha         1 09H       0.103000
     31 H2           1.9230     0.0000    -0.9390 ha         1 09H       0.103000
     32 H3           3.1610     0.0000     1.1910 ha         1 09H       0.156000
     33 H4          -1.7790    -0.0010     1.1920 ha         1 09H       0.113000
     34 H5          -2.3160    -1.1660     2.9400 h1         1 09H       0.020450
     35 H6          -0.9590    -2.0820     3.6190 h1         1 09H       0.020450
     36 H7          -2.9080    -2.0530     5.1590 h1         1 09H       0.010700
     37 H8          -1.5010    -1.2400     5.8680 h1         1 09H       0.010700
     38 H9          -3.4930     0.0350     6.1330 hn         1 09H       0.253800
     39 H11         -2.7880     2.1180     5.2310 h1         1 09H       0.010700
     40 H12         -1.4310     1.2020     5.9090 h1         1 09H       0.010700
     41 H13         -2.2460     1.2760     2.9820 h1         1 09H       0.020450
     42 H14         -0.8390     2.0890     3.6910 h1         1 09H       0.020450
     43 H15          1.6810    -0.4080     4.4270 hn         1 09H       0.194500
     44 H16          5.9480     1.3410     4.2200 h4         1 09H       0.179000
     45 H17          2.1510    -1.4260     7.7740 ha         1 09H       0.122000
     46 H18          1.6210    -2.3880     9.9690 ha         1 09H       0.115000
     47 H19          6.0220    -0.2690     9.2230 ha         1 09H       0.113000
     48 H20          4.7450    -2.2570    13.7150 h1         1 09H       0.019700
     49 H21          5.1290    -3.4970    12.4510 h1         1 09H       0.019700
     50 H22          6.5700    -1.8150    11.6710 hc         1 09H       0.029700
     51 H23          5.5970    -0.5080    12.4120 hc         1 09H       0.029700
@<TRIPOS>BOND
     1     1     2 ar  
     2     1     6 ar  
     3     1    30 1   
     4     2     3 ar  
     5     2    31 1   
     6     3     4 ar  
     7     3    32 1   
     8     4     5 ar  
     9     4    13 1   
    10     5     6 ar  
    11     5     7 1   
    12     6    33 1   
    13     7     8 1   
    14     7    12 1   
    15     8     9 1   
    16     8    34 1   
    17     8    35 1   
    18     9    10 1   
    19     9    36 1   
    20     9    37 1   
    21    10    11 1   
    22    10    38 1   
    23    11    12 1   
    24    11    39 1   
    25    11    40 1   
    26    12    41 1   
    27    12    42 1   
    28    13    14 1   
    29    13    43 1   
    30    14    15 2   
    31    14    16 1   
    32    16    17 1   
    33    16    20 2   
    34    17    18 2   
    35    18    19 1   
    36    18    21 1   
    37    19    20 1   
    38    20    44 1   
    39    21    22 ar  
    40    21    26 ar  
    41    22    23 ar  
    42    22    45 1   
    43    23    24 ar  
    44    23    46 1   
    45    24    25 ar  
    46    24    27 1   
    47    25    26 ar  
    48    25    29 1   
    49    26    47 1   
    50    27    28 1   
    51    28    29 1   
    52    28    48 1   
    53    28    49 1   
    54    29    50 1   
    55    29    51 1   
@<TRIPOS>SUBSTRUCTURE
     1 09H         1 TEMP              0 ****  ****    0 ROOT
