@<TRIPOS>MOLECULE
09H
   51    55     1     0     0
SMALL
bcc


@<TRIPOS>ATOM
      1 C01          0.3550     0.2410    -0.2180 ca         1 09H      -0.151000
      2 C02          1.6550    -0.2030     0.0100 ca         1 09H      -0.108000
      3 C03          2.1220    -0.3870     1.3060 ca         1 09H      -0.154000
      4 C04          1.2960    -0.1250     2.4220 ca         1 09H       0.090600
      5 C05         -0.0430     0.3310     2.1860 ca         1 09H       0.036600
      6 C06         -0.4810     0.5020     0.8610 ca         1 09H      -0.131000
      7 N07         -0.9040     0.5970     3.3050 nh         1 09H      -0.631000
      8 C08         -2.0950    -0.2460     3.3140 c3         1 09H       0.172300
      9 C09         -3.0100     0.0450     4.5210 c3         1 09H       0.159800
     10 N10         -3.3170     1.4540     4.6680 n7         1 09H      -0.820200
     11 C11         -2.1410     2.3010     4.6420 c3         1 09H       0.159800
     12 C12         -1.2210     2.0150     3.4380 c3         1 09H       0.172300
     13 N13          1.7440    -0.3320     3.7370 ns         1 09H      -0.443100
     14 C14          3.0650    -0.3470     4.1490 c          1 09H       0.600600
     15 O15          4.0340    -0.2300     3.3730 o          1 09H      -0.603100
     16 C16          3.3290    -0.5230     5.6100 cc         1 09H       0.279800
     17 N17          2.3440    -0.7920     6.5530 nc         1 09H      -0.623000
     18 C18          2.9040    -0.9000     7.7630 cd         1 09H       0.460900
     19 S19          4.6240    -0.6760     7.7620 ss         1 09H      -0.059300
     20 C20          4.6230    -0.4290     6.1220 cd         1 09H      -0.197400
     21 C21          2.1950    -1.1870     8.9990 ca         1 09H      -0.174500
     22 C22          2.7600    -0.7940    10.2220 ca         1 09H      -0.086000
     23 C23          2.1250    -1.0570    11.4390 ca         1 09H      -0.153000
     24 C24          0.9070    -1.7210    11.3850 ca         1 09H       0.134100
     25 C25          0.3160    -2.1230    10.1590 ca         1 09H      -0.166300
     26 C26          0.9540    -1.8580     8.9640 ca         1 09H      -0.035000
     27 O27          0.1420    -2.0620    12.4870 os         1 09H      -0.317900
     28 C28         -1.0520    -2.7410    11.9990 c3         1 09H       0.118400
     29 C29         -0.9780    -2.8030    10.4610 c3         1 09H      -0.052100
     30 H1          -0.0100     0.3860    -1.2450 ha         1 09H       0.133000
     31 H2           2.3240    -0.4120    -0.8390 ha         1 09H       0.135000
     32 H3           3.1570    -0.7360     1.4550 ha         1 09H       0.170000
     33 H4          -1.5080     0.8550     0.6720 ha         1 09H       0.135000
     34 H5          -1.7550    -1.3170     3.3810 h1         1 09H       0.043450
     35 H6          -2.6980    -0.1310     2.3680 h1         1 09H       0.043450
     36 H7          -2.5250    -0.3850     5.4460 h1         1 09H       0.034700
     37 H8          -3.9810    -0.5000     4.3560 h1         1 09H       0.034700
     38 H9          -3.8310     1.6060     5.5160 hn         1 09H       0.362800
     39 H11         -2.4920     3.3680     4.5630 h1         1 09H       0.034700
     40 H12         -1.5280     2.2080     5.5860 h1         1 09H       0.034700
     41 H13         -0.2550     2.5690     3.5950 h1         1 09H       0.043450
     42 H14         -1.7090     2.4220     2.5050 h1         1 09H       0.043450
     43 H15          1.0370    -0.3410     4.4430 hn         1 09H       0.353500
     44 H16          5.5010    -0.2250     5.5070 h4         1 09H       0.207000
     45 H17          3.7260    -0.2630    10.2300 ha         1 09H       0.137000
     46 H18          2.5670    -0.7500    12.3950 ha         1 09H       0.156000
     47 H19          0.5100    -2.1610     8.0040 ha         1 09H       0.158000
     48 H20         -1.9200    -2.1380    12.3620 h1         1 09H       0.062700
     49 H21         -1.0460    -3.7530    12.4700 h1         1 09H       0.062700
     50 H22         -1.8420    -2.2700     9.9940 hc         1 09H       0.067200
     51 H23         -0.9810    -3.8610    10.1000 hc         1 09H       0.067200
@<TRIPOS>BOND
     1     1     2 ar  
     2     1     6 ar  
     3     1    30 1   
     4     2     3 ar  
     5     2    31 1   
     6     3     4 ar  
     7     3    32 1   
     8     4     5 ar  
     9     4    13 1   
    10     5     6 ar  
    11     5     7 1   
    12     6    33 1   
    13     7     8 1   
    14     7    12 1   
    15     8     9 1   
    16     8    34 1   
    17     8    35 1   
    18     9    10 1   
    19     9    36 1   
    20     9    37 1   
    21    10    11 1   
    22    10    38 1   
    23    11    12 1   
    24    11    39 1   
    25    11    40 1   
    26    12    41 1   
    27    12    42 1   
    28    13    14 1   
    29    13    43 1   
    30    14    15 2   
    31    14    16 1   
    32    16    17 1   
    33    16    20 2   
    34    17    18 2   
    35    18    19 1   
    36    18    21 1   
    37    19    20 1   
    38    20    44 1   
    39    21    22 ar  
    40    21    26 ar  
    41    22    23 ar  
    42    22    45 1   
    43    23    24 ar  
    44    23    46 1   
    45    24    25 ar  
    46    24    27 1   
    47    25    26 ar  
    48    25    29 1   
    49    26    47 1   
    50    27    28 1   
    51    28    29 1   
    52    28    48 1   
    53    28    49 1   
    54    29    50 1   
    55    29    51 1   
@<TRIPOS>SUBSTRUCTURE
     1 09H         1 TEMP              0 ****  ****    0 ROOT
