@<TRIPOS>MOLECULE
09J
   54    58     1     0     0
SMALL
bcc


@<TRIPOS>ATOM
      1 C23          0.0000     0.0000     0.0000 cx         1 09J      -0.094900
      2 C24          1.5310     0.0000     0.0000 cx         1 09J      -0.094900
      3 C22          0.7650     0.0000     1.3260 cx         1 09J      -0.045300
      4 N5           0.7640    -1.2400     2.1060 ns         1 09J      -0.143900
      5 C21          0.9530    -1.1960     3.4400 c          1 09J       0.598700
      6 O2           1.1230    -0.1280     3.9950 o          1 09J      -0.647100
      7 C11          0.9530    -2.4470     4.2280 ca         1 09J      -0.164600
      8 C10          1.1470    -2.4030     5.6070 ca         1 09J       0.000000
      9 C12          0.7520    -3.6740     3.5930 ca         1 09J      -0.074000
     10 C13          0.7520    -4.8440     4.3290 ca         1 09J      -0.111000
     11 C14          0.9490    -4.8070     5.6940 ca         1 09J      -0.044300
     12 C20          0.9470    -6.0890     6.4880 c3         1 09J       0.052200
     13 C9           1.1450    -3.5870     6.3420 ca         1 09J      -0.049800
     14 C4           1.3570    -3.5500     7.8070 cc         1 09J      -0.127400
     15 C5           0.3070    -3.7410     8.6620 cd         1 09J      -0.094800
     16 C3           2.7020    -3.3140     8.3600 c          1 09J       0.646700
     17 O1           3.6490    -3.1460     7.6140 o          1 09J      -0.634500
     18 N4           2.8750    -3.2840     9.6960 n          1 09J      -0.150100
     19 C7           4.2100    -3.0490    10.2520 c3         1 09J       0.028000
     20 C8           4.3770    -1.5600    10.5660 c3         1 09J      -0.027100
     21 N3           1.7900    -3.4760    10.5540 na         1 09J       0.212700
     22 C1           0.5300    -3.7030    10.0590 cd         1 09J       0.202300
     23 N1          -0.2750    -3.8440    11.0980 nc         1 09J      -0.288000
     24 N2           0.3970    -3.7220    12.1880 nc         1 09J      -0.284000
     25 C2           1.6710    -3.4990    11.9130 cd         1 09J       0.232000
     26 C6           2.7590    -3.3080    12.8910 ca         1 09J      -0.147500
     27 C15          2.8880    -2.0950    13.5710 ca         1 09J       0.005400
     28 Cl1          1.7680    -0.8040    13.2670 cl         1 09J       0.020600
     29 C16          3.9080    -1.9240    14.4850 ca         1 09J      -0.112000
     30 C17          4.8020    -2.9510    14.7300 ca         1 09J      -0.048000
     31 C18          4.6830    -4.1560    14.0600 ca         1 09J      -0.135000
     32 C19          3.6630    -4.3440    13.1470 ca         1 09J       0.130900
     33 F1           3.5470    -5.5220    12.4950 f          1 09J      -0.120900
     34 H1          -0.4680     0.9390    -0.2700 hc         1 09J       0.047950
     35 H2          -0.4670    -0.9390    -0.2700 hc         1 09J       0.047950
     36 H3           1.9980     0.9390    -0.2700 hc         1 09J       0.047950
     37 H4           1.9980    -0.9390    -0.2700 hc         1 09J       0.047950
     38 H5           0.7640     0.9480     1.8490 h1         1 09J       0.097700
     39 H6           0.6130    -2.1180     1.6500 hn         1 09J       0.174500
     40 H7           1.2990    -1.4530     6.1060 ha         1 09J       0.132000
     41 H8           0.5960    -3.7090     2.5210 ha         1 09J       0.100000
     42 H9           0.5960    -5.7930     3.8310 ha         1 09J       0.111000
     43 H10          1.0180    -6.9330     5.8130 hc         1 09J       0.013033
     44 H11          1.7930    -6.0960     7.1650 hc         1 09J       0.013033
     45 H12          0.0280    -6.1590     7.0580 hc         1 09J       0.013033
     46 H13         -0.7040    -3.7910     8.2760 ha         1 09J       0.137000
     47 H14          4.3290    -3.6260    11.1610 h1         1 09J       0.053200
     48 H15          4.9600    -3.3520     9.5310 h1         1 09J       0.053200
     49 H16          3.4330    -1.1560    10.9090 hc         1 09J       0.018367
     50 H17          5.1260    -1.4360    11.3390 hc         1 09J       0.018367
     51 H18          4.6910    -1.0360     9.6720 hc         1 09J       0.018367
     52 H19          4.0090    -0.9830    15.0130 ha         1 09J       0.124000
     53 H20          5.6030    -2.8090    15.4460 ha         1 09J       0.113000
     54 H21          5.3850    -4.9560    14.2590 ha         1 09J       0.127000
@<TRIPOS>BOND
     1     1     2 1   
     2     1     3 1   
     3     1    34 1   
     4     1    35 1   
     5     2     3 1   
     6     2    36 1   
     7     2    37 1   
     8     3     4 1   
     9     3    38 1   
    10     4     5 1   
    11     4    39 1   
    12     5     6 2   
    13     5     7 1   
    14     7     8 ar  
    15     7     9 ar  
    16     8    13 ar  
    17     8    40 1   
    18     9    10 ar  
    19     9    41 1   
    20    10    11 ar  
    21    10    42 1   
    22    11    12 1   
    23    11    13 ar  
    24    12    43 1   
    25    12    44 1   
    26    12    45 1   
    27    13    14 1   
    28    14    15 2   
    29    14    16 1   
    30    15    22 1   
    31    15    46 1   
    32    16    17 2   
    33    16    18 1   
    34    18    19 1   
    35    18    21 1   
    36    19    20 1   
    37    19    47 1   
    38    19    48 1   
    39    20    49 1   
    40    20    50 1   
    41    20    51 1   
    42    21    22 1   
    43    21    25 1   
    44    22    23 2   
    45    23    24 1   
    46    24    25 2   
    47    25    26 1   
    48    26    27 ar  
    49    26    32 ar  
    50    27    28 1   
    51    27    29 ar  
    52    29    30 ar  
    53    29    52 1   
    54    30    31 ar  
    55    30    53 1   
    56    31    32 ar  
    57    31    54 1   
    58    32    33 1   
@<TRIPOS>SUBSTRUCTURE
     1 09J         1 TEMP              0 ****  ****    0 ROOT
