@<TRIPOS>MOLECULE
09J
   55    59     1     0     0
SMALL
bcc


@<TRIPOS>ATOM
      1 C23          0.9120     0.0680     0.1090 cx         1 09J      -0.102400
      2 C24          2.0910    -0.7960     0.4360 cx         1 09J      -0.102400
      3 C22          1.2450    -0.2280     1.5580 cx         1 09J      -0.001500
      4 N5           0.3700    -1.0930     2.3650 ny         1 09J      -0.648800
      5 C21          1.0340    -1.4890     3.6880 c          1 09J       0.586700
      6 O2           1.4210    -0.5520     4.3690 o          1 09J      -0.411100
      7 C11          1.1300    -2.9220     3.9440 ca         1 09J      -0.217600
      8 C10          2.2280    -3.3640     4.6950 ca         1 09J      -0.004000
      9 C12          0.1540    -3.8430     3.5230 ca         1 09J      -0.093000
     10 C13          0.2970    -5.1820     3.8470 ca         1 09J      -0.130000
     11 C14          1.4040    -5.6440     4.5850 ca         1 09J       0.018700
     12 C20          1.4800    -7.0880     4.9040 c3         1 09J      -0.085800
     13 C9           2.3840    -4.7250     5.0020 ca         1 09J      -0.031800
     14 C4           3.5660    -5.1330     5.7590 cc         1 09J      -0.179400
     15 C5           4.3370    -6.1880     5.3900 cd         1 09J      -0.058800
     16 C3           3.8940    -4.3460     6.9750 c          1 09J       0.688700
     17 O1           3.2290    -3.3590     7.3350 o          1 09J      -0.598500
     18 N4           5.0790    -4.6600     7.7360 n          1 09J      -0.301100
     19 C7           5.0240    -4.3120     9.1700 c3         1 09J       0.057000
     20 C8           4.3230    -5.3090    10.0720 c3         1 09J      -0.130100
     21 N3           5.7790    -5.7670     7.3690 na         1 09J      -0.180300
     22 C1           5.4840    -6.5180     6.1830 cd         1 09J       0.319300
     23 N1           6.4630    -7.4740     6.0290 nc         1 09J      -0.272000
     24 N2           7.3270    -7.3630     6.9920 nc         1 09J      -0.297000
     25 C2           6.9840    -6.3220     7.8420 cd         1 09J       0.454000
     26 C6           7.7460    -5.9130     9.0150 ca         1 09J      -0.188500
     27 C15          8.5820    -4.7850     8.9830 ca         1 09J       0.066400
     28 Cl1          8.6450    -3.8090     7.5980 cl         1 09J      -0.058400
     29 C16          9.3750    -4.4580    10.0860 ca         1 09J      -0.144000
     30 C17          9.3420    -5.2590    11.2280 ca         1 09J      -0.069000
     31 C18          8.5220    -6.3800    11.2870 ca         1 09J      -0.168000
     32 C19          7.7190    -6.7140    10.1800 ca         1 09J       0.176900
     33 F1           6.9150    -7.7980    10.2410 f          1 09J      -0.118900
     34 H1           0.0230    -0.3930    -0.3630 hc         1 09J       0.109950
     35 H2           1.0690     1.1050    -0.2460 hc         1 09J       0.109950
     36 H3           3.1170    -0.3940     0.3220 hc         1 09J       0.109950
     37 H4           2.0480    -1.8750     0.1990 hc         1 09J       0.109950
     38 H5           1.6650     0.5860     2.1960 hx         1 09J       0.158700
     39 H6          -0.4900    -0.5720     2.5720 hn         1 09J       0.454300
     40 H7           2.9690    -2.6330     5.0700 ha         1 09J       0.182000
     41 H8          -0.7460    -3.5230     2.9780 ha         1 09J       0.128000
     42 H9          -0.4750    -5.9040     3.5350 ha         1 09J       0.164000
     43 H10          2.0510    -7.2680     5.8490 hc         1 09J       0.072700
     44 H11          0.4550    -7.5220     5.0260 hc         1 09J       0.072700
     45 H12          1.9920    -7.6370     4.0720 hc         1 09J       0.072700
     46 H13          4.1350    -6.8090     4.5010 ha         1 09J       0.178000
     47 H14          6.0860    -4.1600     9.5180 h1         1 09J       0.093200
     48 H15          4.4960    -3.3150     9.2140 h1         1 09J       0.093200
     49 H16          3.2750    -5.4950     9.7350 hc         1 09J       0.057033
     50 H17          4.2910    -4.8870    11.1060 hc         1 09J       0.057033
     51 H18          4.8700    -6.2840    10.1060 hc         1 09J       0.057033
     52 H19         10.0330    -3.5750    10.0500 ha         1 09J       0.164000
     53 H20          9.9780    -5.0020    12.0910 ha         1 09J       0.158000
     54 H21          8.4970    -7.0190    12.1840 ha         1 09J       0.167000
     55 H52          0.1290    -1.9370     1.8350 hn         1 09J       0.454300
@<TRIPOS>BOND
     1     1     2 1   
     2     1     3 1   
     3     1    34 1   
     4     1    35 1   
     5     2     3 1   
     6     2    36 1   
     7     2    37 1   
     8     3     4 1   
     9     3    38 1   
    10     4     5 1   
    11     4    39 1   
    12     4    55 1   
    13     5     6 2   
    14     5     7 1   
    15     7     8 ar  
    16     7     9 ar  
    17     8    13 ar  
    18     8    40 1   
    19     9    10 ar  
    20     9    41 1   
    21    10    11 ar  
    22    10    42 1   
    23    11    12 1   
    24    11    13 ar  
    25    12    43 1   
    26    12    44 1   
    27    12    45 1   
    28    13    14 1   
    29    14    15 2   
    30    14    16 1   
    31    15    22 1   
    32    15    46 1   
    33    16    17 2   
    34    16    18 1   
    35    18    19 1   
    36    18    21 1   
    37    19    20 1   
    38    19    47 1   
    39    19    48 1   
    40    20    49 1   
    41    20    50 1   
    42    20    51 1   
    43    21    22 1   
    44    21    25 1   
    45    22    23 2   
    46    23    24 1   
    47    24    25 2   
    48    25    26 1   
    49    26    27 ar  
    50    26    32 ar  
    51    27    28 1   
    52    27    29 ar  
    53    29    30 ar  
    54    29    52 1   
    55    30    31 ar  
    56    30    53 1   
    57    31    32 ar  
    58    31    54 1   
    59    32    33 1   
@<TRIPOS>SUBSTRUCTURE
     1 09J         1 TEMP              0 ****  ****    0 ROOT
