@<TRIPOS>MOLECULE
molecule
   54    58     1     0     0
SMALL
bcc


@<TRIPOS>ATOM
      1 C23          0.0000     0.0000     0.0000 cx         1 09J      -0.157900
      2 C24          1.5310     0.0000     0.0000 cx         1 09J      -0.157900
      3 C22          0.7650     0.0000     1.3260 cx         1 09J       0.060700
      4 N5           0.7640    -1.2400     2.1060 ns         1 09J      -0.551900
      5 C21          0.9530    -1.1960     3.4400 c          1 09J       0.680700
      6 O2           1.1230    -0.1280     3.9950 o          1 09J      -0.604100
      7 C11          0.9530    -2.4470     4.2280 ca         1 09J      -0.153600
      8 C10          1.1470    -2.4030     5.6070 ca         1 09J      -0.030000
      9 C12          0.7520    -3.6740     3.5930 ca         1 09J      -0.093000
     10 C13          0.7520    -4.8440     4.3290 ca         1 09J      -0.139000
     11 C14          0.9490    -4.8070     5.6940 ca         1 09J      -0.034300
     12 C20          0.9470    -6.0890     6.4880 c3         1 09J      -0.054800
     13 C9           1.1450    -3.5870     6.3420 ca         1 09J      -0.059800
     14 C4           1.3570    -3.5500     7.8070 cc         1 09J      -0.111400
     15 C5           0.3070    -3.7410     8.6620 cd         1 09J      -0.133800
     16 C3           2.7020    -3.3140     8.3600 c          1 09J       0.710700
     17 O1           3.6490    -3.1460     7.6140 o          1 09J      -0.599500
     18 N4           2.8750    -3.2840     9.6960 n          1 09J      -0.356100
     19 C7           4.2100    -3.0490    10.2520 c3         1 09J       0.097000
     20 C8           4.3770    -1.5600    10.5660 c3         1 09J      -0.121100
     21 N3           1.7900    -3.4760    10.5540 na         1 09J      -0.166300
     22 C1           0.5300    -3.7030    10.0590 cd         1 09J       0.389300
     23 N1          -0.2750    -3.8440    11.0980 nc         1 09J      -0.315000
     24 N2           0.3970    -3.7220    12.1880 nd         1 09J      -0.303000
     25 C2           1.6710    -3.4990    11.9130 cc         1 09J       0.418000
     26 C6           2.7590    -3.3080    12.8910 ca         1 09J      -0.161500
     27 C15          2.8880    -2.0950    13.5710 ca         1 09J       0.082400
     28 Cl1          1.7680    -0.8040    13.2670 cl         1 09J      -0.065400
     29 C16          3.9080    -1.9240    14.4850 ca         1 09J      -0.142000
     30 C17          4.8020    -2.9510    14.7300 ca         1 09J      -0.077000
     31 C18          4.6830    -4.1560    14.0600 ca         1 09J      -0.173000
     32 C19          3.6630    -4.3440    13.1470 ca         1 09J       0.164900
     33 F1           3.5470    -5.5220    12.4950 f          1 09J      -0.122900
     34 H1          -0.4680     0.9390    -0.2700 hc         1 09J       0.077450
     35 H2          -0.4670    -0.9390    -0.2700 hc         1 09J       0.077450
     36 H3           1.9980     0.9390    -0.2700 hc         1 09J       0.077450
     37 H4           1.9980    -0.9390    -0.2700 hc         1 09J       0.077450
     38 H5           0.7640     0.9480     1.8490 h1         1 09J       0.125700
     39 H6           0.6130    -2.1180     1.6500 hn         1 09J       0.317500
     40 H7           1.2990    -1.4530     6.1060 ha         1 09J       0.165000
     41 H8           0.5960    -3.7090     2.5210 ha         1 09J       0.125000
     42 H9           0.5960    -5.7930     3.8310 ha         1 09J       0.138000
     43 H10          1.0180    -6.9330     5.8130 hc         1 09J       0.050367
     44 H11          1.7930    -6.0960     7.1650 hc         1 09J       0.050367
     45 H12          0.0280    -6.1590     7.0580 hc         1 09J       0.050367
     46 H13         -0.7040    -3.7910     8.2760 ha         1 09J       0.176000
     47 H14          4.3290    -3.6260    11.1610 h1         1 09J       0.078200
     48 H15          4.9600    -3.3520     9.5310 h1         1 09J       0.078200
     49 H16          3.4330    -1.1560    10.9090 hc         1 09J       0.052033
     50 H17          5.1260    -1.4360    11.3390 hc         1 09J       0.052033
     51 H18          4.6910    -1.0360     9.6720 hc         1 09J       0.052033
     52 H19          4.0090    -0.9830    15.0130 ha         1 09J       0.157000
     53 H20          5.6030    -2.8090    15.4460 ha         1 09J       0.149000
     54 H21          5.3850    -4.9560    14.2590 ha         1 09J       0.157000
@<TRIPOS>BOND
     1    20    19 1
     2    33    32 1
     3    31    32 ar
     4    31    30 ar
     5    32    26 ar
     6    30    29 ar
     7    12    11 1
     8    19    18 1
     9    17    16 2
    10    18    16 1
    11    18    21 1
    12    26    25 1
    13    26    27 ar
    14    29    27 ar
    15    16    14 1
    16    11    10 ar
    17    11    13 ar
    18    21    25 1
    19    21    22 1
    20    25    24 2
    21    10     9 ar
    22    27    28 1
    23    14    13 1
    24    14    15 2
    25    13     8 ar
    26    22    15 1
    27    22    23 2
    28    24    23 1
    29     9     7 ar
    30     8     7 ar
    31     7     5 1
    32     5     4 1
    33     5     6 2
    34     4     3 1
    35     3     1 1
    36     3     2 1
    37     1     2 1
    38     1    34 1
    39     1    35 1
    40     2    36 1
    41     2    37 1
    42     3    38 1
    43     4    39 1
    44     8    40 1
    45     9    41 1
    46    10    42 1
    47    12    43 1
    48    12    44 1
    49    12    45 1
    50    15    46 1
    51    19    47 1
    52    19    48 1
    53    20    49 1
    54    20    50 1
    55    20    51 1
    56    29    52 1
    57    30    53 1
    58    31    54 1
@<TRIPOS>SUBSTRUCTURE
     1 09J         1 TEMP              0 ****  ****    0 ROOT
