@<TRIPOS>MOLECULE
09K
   37    39     1     0     0
SMALL
bcc


@<TRIPOS>ATOM
      1 C1           0.0000     0.0000     0.0000 c3         1 09K       0.755700
      2 F1           1.3990     0.0000     0.0000 f          1 09K      -0.197300
      3 N1           0.1650     6.5840     5.1780 ns         1 09K       0.001900
      4 O1          -0.4770     0.0000     1.3470 os         1 09K      -0.313900
      5 C2          -0.1110     1.0480     2.1310 ca         1 09K       0.140100
      6 F2          -0.4660     1.1440    -0.6590 f          1 09K      -0.197300
      7 N2          -0.7570     8.7910     5.7070 na         1 09K       0.413400
      8 O2          -0.9580     5.2900     3.7650 o          1 09K      -0.604100
      9 C3           0.6840     2.0590     1.6140 ca         1 09K      -0.153500
     10 F3          -0.4670    -1.1410    -0.6610 f          1 09K      -0.197300
     11 N3          -1.8940     9.5130     5.3210 nc         1 09K      -0.651800
     12 C4           1.0550     3.1230     2.4120 ca         1 09K      -0.040000
     13 C5           0.6320     3.1810     3.7280 ca         1 09K      -0.099300
     14 C6          -0.1600     2.1740     4.2470 ca         1 09K      -0.040000
     15 C7          -0.5380     1.1110     3.4500 ca         1 09K      -0.153500
     16 C8           1.0380     4.3430     4.5970 c3         1 09K      -0.032100
     17 C9           0.0100     5.4390     4.4830 c          1 09K       0.556100
     18 C10         -0.7870     7.5980     5.0720 cc         1 09K      -0.261700
     19 C11         -2.5850     8.7790     4.4870 cd         1 09K       0.416600
     20 C12         -1.9140     7.5670     4.3090 cd         1 09K      -0.338300
     21 C13         -3.8800     9.1760     3.8270 cx         1 09K      -0.122000
     22 C14         -3.8030     9.7850     2.4250 cx         1 09K      -0.077400
     23 C15         -4.3350     8.3620     2.6150 cx         1 09K      -0.077400
     24 HN1          0.9560     6.7010     5.7800 hn         1 09K       0.156500
     25 H3           1.0160     2.0140     0.5830 ha         1 09K       0.125000
     26 H4           1.6760     3.9130     2.0080 ha         1 09K       0.107000
     27 H6          -0.4920     2.2230     5.2770 ha         1 09K       0.107000
     28 H7          -1.1590     0.3220     3.8570 ha         1 09K       0.125000
     29 H8           2.0020     4.7170     4.2730 hc         1 09K       0.031700
     30 H8A          1.1050     4.0170     5.6280 hc         1 09K       0.031700
     31 H12         -2.2340     6.7470     3.6770 ha         1 09K       0.191000
     32 H13         -4.6850     9.5590     4.4430 hc         1 09K       0.063700
     33 H14         -4.5490    10.5370     2.2000 hc         1 09K       0.047950
     34 H14A        -2.8080     9.8590     2.0030 hc         1 09K       0.047950
     35 H15         -5.4060     8.2450     2.5050 hc         1 09K       0.047950
     36 H15A        -3.6650     7.5680     2.3070 hc         1 09K       0.047950
     37 HN2         -0.0470     9.1050     6.3390 hn         1 09K       0.144700
@<TRIPOS>BOND
     1     1     2 1   
     2     1     4 1   
     3     1     6 1   
     4     1    10 1   
     5     3    17 1   
     6     3    18 1   
     7     3    24 1   
     8     4     5 1   
     9     5     9 ar  
    10     5    15 ar  
    11     7    11 1   
    12     7    18 1   
    13     7    37 1   
    14     8    17 2   
    15     9    12 ar  
    16     9    25 1   
    17    11    19 2   
    18    12    13 ar  
    19    12    26 1   
    20    13    14 ar  
    21    13    16 1   
    22    14    15 ar  
    23    14    27 1   
    24    15    28 1   
    25    16    17 1   
    26    16    29 1   
    27    16    30 1   
    28    18    20 2   
    29    19    20 1   
    30    19    21 1   
    31    20    31 1   
    32    21    22 1   
    33    21    23 1   
    34    21    32 1   
    35    22    23 1   
    36    22    33 1   
    37    22    34 1   
    38    23    35 1   
    39    23    36 1   
@<TRIPOS>SUBSTRUCTURE
     1 09K         1 TEMP              0 ****  ****    0 ROOT
