@<TRIPOS>MOLECULE
molecule
   37    39     1     0     0
SMALL
bcc


@<TRIPOS>ATOM
      1 C1           0.0000     0.0000     0.0000 c3         1 09K       0.795700
      2 F1           1.3990     0.0000     0.0000 f          1 09K      -0.204300
      3 N1           0.1650     6.5840     5.1780 ns         1 09K      -0.462100
      4 O1          -0.4770     0.0000     1.3470 os         1 09K      -0.339900
      5 C2          -0.1110     1.0480     2.1310 ca         1 09K       0.130100
      6 F2          -0.4660     1.1440    -0.6590 f          1 09K      -0.204300
      7 N2          -0.7570     8.7910     5.7070 na         1 09K      -0.071600
      8 O2          -0.9580     5.2900     3.7650 o          1 09K      -0.563100
      9 C3           0.6840     2.0590     1.6140 ca         1 09K      -0.164500
     10 F3          -0.4670    -1.1410    -0.6610 f          1 09K      -0.204300
     11 N3          -1.8940     9.5130     5.3210 nc         1 09K      -0.504800
     12 C4           1.0550     3.1230     2.4120 ca         1 09K      -0.074000
     13 C5           0.6320     3.1810     3.7280 ca         1 09K      -0.094300
     14 C6          -0.1600     2.1740     4.2470 ca         1 09K      -0.074000
     15 C7          -0.5380     1.1110     3.4500 ca         1 09K      -0.164500
     16 C8           1.0380     4.3430     4.5970 c3         1 09K      -0.102100
     17 C9           0.0100     5.4390     4.4830 c          1 09K       0.661100
     18 C10         -0.7870     7.5980     5.0720 cc         1 09K       0.051300
     19 C11         -2.5850     8.7790     4.4870 cd         1 09K       0.386600
     20 C12         -1.9140     7.5670     4.3090 cd         1 09K      -0.346300
     21 C13         -3.8800     9.1760     3.8270 cx         1 09K      -0.156000
     22 C14         -3.8030     9.7850     2.4250 cx         1 09K      -0.128900
     23 C15         -4.3350     8.3620     2.6150 cx         1 09K      -0.128900
     24 HN1          0.9560     6.7010     5.7800 hn         1 09K       0.319500
     25 H3           1.0160     2.0140     0.5830 ha         1 09K       0.150500
     26 H4           1.6760     3.9130     2.0080 ha         1 09K       0.139000
     27 H6          -0.4920     2.2230     5.2770 ha         1 09K       0.139000
     28 H7          -1.1590     0.3220     3.8570 ha         1 09K       0.150500
     29 H8           2.0020     4.7170     4.2730 hc         1 09K       0.069200
     30 H8A          1.1050     4.0170     5.6280 hc         1 09K       0.069200
     31 H12         -2.2340     6.7470     3.6770 ha         1 09K       0.199000
     32 H13         -4.6850     9.5590     4.4430 hc         1 09K       0.093700
     33 H14         -4.5490    10.5370     2.2000 hc         1 09K       0.078700
     34 H14A        -2.8080     9.8590     2.0030 hc         1 09K       0.078700
     35 H15         -5.4060     8.2450     2.5050 hc         1 09K       0.078700
     36 H15A        -3.6650     7.5680     2.3070 hc         1 09K       0.078700
     37 HN2         -0.0470     9.1050     6.3390 hn         1 09K       0.321700
@<TRIPOS>BOND
     1     4     1 1
     2    10     1 1
     3     1     2 1
     4     1     6 1
     5    17     3 1
     6    18     3 1
     7     3    24 1
     8     5     4 1
     9     9     5 ar
    10     5    15 ar
    11    18     7 1
    12    11     7 1
    13     8    17 2
    14    12     9 ar
    15     9    25 1
    16    19    11 2
    17    12    13 ar
    18    12    26 1
    19    16    13 1
    20    13    14 ar
    21    14    15 ar
    22    14    27 1
    23    15    28 1
    24    17    16 1
    25    16    29 1
    26    16    30 1
    27    20    18 2
    28    21    19 1
    29    20    19 1
    30    20    31 1
    31    23    21 1
    32    22    21 1
    33    21    32 1
    34    23    22 1
    35    22    33 1
    36    22    34 1
    37    23    35 1
    38    23    36 1
    39     7    37 1
@<TRIPOS>SUBSTRUCTURE
     1 09K         1 TEMP              0 ****  ****    0 ROOT
