@<TRIPOS>MOLECULE
09K
   37    39     1     0     0
SMALL
bcc


@<TRIPOS>ATOM
      1 C1          -0.5940     0.3000    -0.3110 c3         1 09K       0.821700
      2 F1           0.7100     0.6360    -0.4560 f          1 09K      -0.214633
      3 N1          -6.5310    -2.3030     1.1800 ns         1 09K      -0.457100
      4 O1          -0.7940     0.2260     1.0770 os         1 09K      -0.368900
      5 C2          -2.0280    -0.2370     1.5350 ca         1 09K       0.090100
      6 F2          -1.3690     1.2590    -0.8780 f          1 09K      -0.214633
      7 N2          -7.5530    -2.7120    -1.0480 na         1 09K      -0.040600
      8 O2          -7.0320    -3.4960     3.0950 o          1 09K      -0.571100
      9 C3          -2.0360    -1.4420     2.2520 ca         1 09K      -0.119500
     10 F3          -0.8310    -0.8810    -0.9320 f          1 09K      -0.214633
     11 N3          -8.2610    -3.6520    -1.6790 nc         1 09K      -0.515800
     12 C4          -3.2240    -1.8600     2.8460 ca         1 09K      -0.117000
     13 C5          -4.3920    -1.0980     2.7190 ca         1 09K      -0.092300
     14 C6          -4.3620     0.1020     1.9960 ca         1 09K      -0.117000
     15 C7          -3.1830     0.5430     1.4030 ca         1 09K      -0.119500
     16 C8          -5.6490    -1.5470     3.3710 c3         1 09K      -0.115100
     17 C9          -6.4570    -2.5410     2.5470 c          1 09K       0.672100
     18 C10         -7.2770    -3.0870     0.3010 cc         1 09K       0.016300
     19 C11         -8.5710    -4.6150    -0.7630 cd         1 09K       0.358600
     20 C12         -7.9620    -4.3000     0.5160 cd         1 09K      -0.291300
     21 C13         -9.3970    -5.7880    -1.0450 cx         1 09K      -0.157000
     22 C14         -9.0830    -7.0940    -0.3550 cx         1 09K      -0.123400
     23 C15        -10.3090    -6.3250     0.0330 cx         1 09K      -0.123400
     24 HN1         -6.0100    -1.5440     0.8050 hn         1 09K       0.324500
     25 H3          -1.1130    -2.0310     2.3490 ha         1 09K       0.160500
     26 H4          -3.2430    -2.8010     3.4190 ha         1 09K       0.147000
     27 H6          -5.2740     0.7130     1.9080 ha         1 09K       0.147000
     28 H7          -3.1500     1.4880     0.8390 ha         1 09K       0.160500
     29 H8          -6.3170    -0.6690     3.5880 hc         1 09K       0.090700
     30 H8A         -5.4180    -2.0470     4.3520 hc         1 09K       0.090700
     31 H12         -8.0290    -4.8630     1.4410 ha         1 09K       0.191000
     32 H13         -9.7590    -5.8350    -2.0940 hc         1 09K       0.096700
     33 H14         -8.2320    -7.1330     0.3490 hc         1 09K       0.074450
     34 H14A        -9.1900    -8.0300    -0.9310 hc         1 09K       0.074450
     35 H15        -11.3030    -6.7040    -0.2620 hc         1 09K       0.074450
     36 H15A       -10.3310    -5.8150     1.0130 hc         1 09K       0.074450
     37 HN2         -7.0210    -2.0700    -1.5880 hn         1 09K       0.307700
@<TRIPOS>BOND
     1     1     2 1   
     2     1     4 1   
     3     1     6 1   
     4     1    10 1   
     5     3    17 1   
     6     3    18 1   
     7     3    24 1   
     8     4     5 1   
     9     5     9 ar  
    10     5    15 ar  
    11     7    11 1   
    12     7    18 1   
    13     7    37 1   
    14     8    17 2   
    15     9    12 ar  
    16     9    25 1   
    17    11    19 2   
    18    12    13 ar  
    19    12    26 1   
    20    13    14 ar  
    21    13    16 1   
    22    14    15 ar  
    23    14    27 1   
    24    15    28 1   
    25    16    17 1   
    26    16    29 1   
    27    16    30 1   
    28    18    20 2   
    29    19    20 1   
    30    19    21 1   
    31    20    31 1   
    32    21    22 1   
    33    21    23 1   
    34    21    32 1   
    35    22    23 1   
    36    22    33 1   
    37    22    34 1   
    38    23    35 1   
    39    23    36 1   
@<TRIPOS>SUBSTRUCTURE
     1 09K         1 TEMP              0 ****  ****    0 ROOT
