@<TRIPOS>MOLECULE
09L
   55    59     1     0     0
SMALL
bcc


@<TRIPOS>ATOM
      1 CAJ         -0.4380     0.9060     1.7650 cx         1 09L      -0.107900
      2 CAK          1.0000     1.2500     1.5250 cx         1 09L      -0.107900
      3 CAI          0.6430     0.1520     2.4950 cx         1 09L      -0.217700
      4 CAL          0.8980    -1.2710     2.1060 c          1 09L       0.692100
      5 OAB          0.0810    -1.9310     1.4340 o          1 09L      -0.602100
      6 NAE          2.0970    -1.8470     2.5050 n          1 09L      -0.480800
      7 CAM          2.3750    -3.2350     2.2230 c3         1 09L       0.087500
      8 CAO          3.1400    -3.9510     3.3520 c3         1 09L       0.085000
      9 CAN          3.0270    -1.1380     3.3460 c3         1 09L       0.087500
     10 CAP          4.4020    -1.8320     3.4610 c3         1 09L       0.085000
     11 NAF          4.3120    -3.2290     3.7960 n          1 09L      -0.472800
     12 CAQ          5.2980    -3.9020     4.4960 c          1 09L       0.679700
     13 OAC          5.1520    -5.1070     4.7820 o          1 09L      -0.591100
     14 CAR          6.5200    -3.1570     4.9200 ca         1 09L      -0.167600
     15 CAS          6.7830    -3.0410     6.2870 ca         1 09L      -0.057000
     16 CAU          7.4440    -2.6390     3.9900 ca         1 09L       0.152900
     17 FAA          7.2260    -2.7480     2.6590 f          1 09L      -0.132900
     18 CAX          8.6150    -2.0020     4.4460 ca         1 09L      -0.170000
     19 CAW          8.8510    -1.8860     5.8100 ca         1 09L      -0.075000
     20 CAT          7.9410    -2.4040     6.7400 ca         1 09L      -0.089300
     21 CAV          8.2180    -2.3030     8.2000 c3         1 09L      -0.052400
     22 CAY          7.8250    -0.9980     8.8330 cc         1 09L       0.348900
     23 CAZ          8.0620    -0.8570    10.2740 ca         1 09L      -0.107900
     24 CBB          8.6290    -1.8630    11.0690 ca         1 09L      -0.129000
     25 CBE          8.8210    -1.6510    12.4300 ca         1 09L      -0.096000
     26 CBF          8.4540    -0.4370    13.0220 ca         1 09L      -0.135000
     27 CBD          7.8910     0.5720    12.2490 ca         1 09L      -0.067000
     28 CBA          7.6950     0.3660    10.8770 ca         1 09L      -0.140600
     29 CBC          7.0990     1.4280    10.0440 c          1 09L       0.686100
     30 OAD          6.7330     2.5450    10.4470 o          1 09L      -0.614500
     31 NAH          6.9470     1.1110     8.6750 ns         1 09L      -0.302900
     32 NAG          7.2880    -0.0290     8.1050 nd         1 09L      -0.422300
     33 H1          -1.0020     0.3730     0.9770 hc         1 09L       0.081950
     34 H2          -1.0740     1.6020     2.3400 hc         1 09L       0.081950
     35 H3           1.4620     0.9800     0.5580 hc         1 09L       0.081950
     36 H4           1.4080     2.1940     1.9290 hc         1 09L       0.081950
     37 H5           0.7760     0.3340     3.5800 hc         1 09L       0.095700
     38 H6           1.4050    -3.7860     2.0540 h1         1 09L       0.057950
     39 H7           2.9790    -3.2930     1.2710 h1         1 09L       0.057950
     40 H8           2.4560    -4.1070     4.2350 h1         1 09L       0.060950
     41 H9           3.4520    -4.9680     2.9780 h1         1 09L       0.060950
     42 H10          3.2020    -0.1070     2.9230 h1         1 09L       0.057950
     43 H11          2.5890    -1.0190     4.3800 h1         1 09L       0.057950
     44 H12          4.9910    -1.2860     4.2510 h1         1 09L       0.060950
     45 H13          4.9520    -1.7230     2.4800 h1         1 09L       0.060950
     46 H14          6.0660    -3.4690     7.0070 ha         1 09L       0.154000
     47 H15          9.3320    -1.6040     3.7130 ha         1 09L       0.154000
     48 H16          9.7650    -1.3820     6.1620 ha         1 09L       0.143000
     49 H17          7.6700    -3.1220     8.7430 hc         1 09L       0.067700
     50 H18          9.3200    -2.4490     8.3790 hc         1 09L       0.067700
     51 H19          8.9240    -2.8230    10.6200 ha         1 09L       0.142000
     52 H20          9.2660    -2.4450    13.0490 ha         1 09L       0.141000
     53 H21          8.6110    -0.2820    14.1000 ha         1 09L       0.144000
     54 H22          7.5940     1.5360    12.6940 ha         1 09L       0.163000
     55 H23          6.5500     1.7900     8.0520 hn         1 09L       0.359500
@<TRIPOS>BOND
     1     1     2 1   
     2     1     3 1   
     3     1    33 1   
     4     1    34 1   
     5     2     3 1   
     6     2    35 1   
     7     2    36 1   
     8     3     4 1   
     9     3    37 1   
    10     4     5 2   
    11     4     6 1   
    12     6     7 1   
    13     6     9 1   
    14     7     8 1   
    15     7    38 1   
    16     7    39 1   
    17     8    11 1   
    18     8    40 1   
    19     8    41 1   
    20     9    10 1   
    21     9    42 1   
    22     9    43 1   
    23    10    11 1   
    24    10    44 1   
    25    10    45 1   
    26    11    12 1   
    27    12    13 2   
    28    12    14 1   
    29    14    15 ar  
    30    14    16 ar  
    31    15    20 ar  
    32    15    46 1   
    33    16    17 1   
    34    16    18 ar  
    35    18    19 ar  
    36    18    47 1   
    37    19    20 ar  
    38    19    48 1   
    39    20    21 1   
    40    21    22 1   
    41    21    49 1   
    42    21    50 1   
    43    22    23 1   
    44    22    32 2   
    45    23    24 ar  
    46    23    28 ar  
    47    24    25 ar  
    48    24    51 1   
    49    25    26 ar  
    50    25    52 1   
    51    26    27 ar  
    52    26    53 1   
    53    27    28 ar  
    54    27    54 1   
    55    28    29 1   
    56    29    30 2   
    57    29    31 1   
    58    31    32 1   
    59    31    55 1   
@<TRIPOS>SUBSTRUCTURE
     1 09L         1 TEMP              0 ****  ****    0 ROOT
