@<TRIPOS>MOLECULE
molecule
   55    59     1     0     0
SMALL
bcc


@<TRIPOS>ATOM
      1 CAJ          0.0000     0.0000     0.0000 cx         1 09L      -0.109900
      2 CAK          1.5300     0.0000     0.0000 cx         1 09L      -0.109900
      3 CAI          0.7660     0.0000     1.3250 cx         1 09L      -0.237700
      4 CAL          0.7670    -1.2750     2.1280 c          1 09L       0.700100
      5 OAB          0.1750    -2.2500     1.7170 o          1 09L      -0.612100
      6 NAE          1.4250    -1.3310     3.3030 n          1 09L      -0.489800
      7 CAM          2.1410    -0.1540     3.8150 c3         1 09L       0.087500
      8 CAO          3.5980    -0.5490     4.0910 c3         1 09L       0.083500
      9 CAN          1.4350    -2.5680     4.0980 c3         1 09L       0.087500
     10 CAP          2.8900    -2.9650     4.3670 c3         1 09L       0.083500
     11 NAF          3.6070    -1.7850     4.8850 n          1 09L      -0.489800
     12 CAQ          4.2620    -1.8400     6.0620 c          1 09L       0.680700
     13 OAC          4.9130    -0.8860     6.4400 o          1 09L      -0.586100
     14 CAR          4.1870    -3.0590     6.8930 ca         1 09L      -0.177600
     15 CAS          4.5320    -4.2990     6.3520 ca         1 09L      -0.072000
     16 CAU          3.7760    -2.9760     8.2270 ca         1 09L       0.182900
     17 FAA          3.4440    -1.7790     8.7610 f          1 09L      -0.121900
     18 CAX          3.7090    -4.1220     8.9980 ca         1 09L      -0.171000
     19 CAW          4.0470    -5.3460     8.4520 ca         1 09L      -0.071000
     20 CAT          4.4600    -5.4330     7.1320 ca         1 09L      -0.101300
     21 CAV          4.8330    -6.7710     6.5490 c3         1 09L      -0.044400
     22 CAY          6.3040    -7.0210     6.7640 cc         1 09L       0.386900
     23 CAZ          6.9130    -8.2590     6.2780 ca         1 09L      -0.138900
     24 CBB          6.1690    -9.2380     5.6160 ca         1 09L      -0.122000
     25 CBE          6.7840   -10.3770     5.1810 ca         1 09L      -0.102000
     26 CBF          8.1430   -10.5780     5.3870 ca         1 09L      -0.130000
     27 CBD          8.9030    -9.6310     6.0370 ca         1 09L      -0.063000
     28 CBA          8.2970    -8.4590     6.4910 ca         1 09L      -0.132600
     29 CBC          9.0510    -7.4120     7.1890 c          1 09L       0.682100
     30 OAD         10.2460    -7.5390     7.3950 o          1 09L      -0.630500
     31 NAH          8.3970    -6.3050     7.5990 ns         1 09L      -0.305900
     32 NAG          7.0310    -6.1340     7.3750 nd         1 09L      -0.431300
     33 H1          -0.4670    -0.9390    -0.2700 hc         1 09L       0.084200
     34 H2          -0.4670     0.9390    -0.2700 hc         1 09L       0.084200
     35 H3           1.9970    -0.9390    -0.2700 hc         1 09L       0.084200
     36 H4           1.9970     0.9390    -0.2700 hc         1 09L       0.084200
     37 H5           0.7660     0.9480     1.8490 hc         1 09L       0.088700
     38 H6           2.1140     0.6370     3.0760 h1         1 09L       0.065700
     39 H7           1.6760     0.1820     4.7340 h1         1 09L       0.065700
     40 H8           4.1130    -0.7160     3.1530 h1         1 09L       0.066700
     41 H9           4.0890     0.2420     4.6460 h1         1 09L       0.066700
     42 H10          0.9390    -3.3570     3.5450 h1         1 09L       0.065700
     43 H11          0.9240    -2.3990     5.0380 h1         1 09L       0.065700
     44 H12          2.9200    -3.7600     5.1030 h1         1 09L       0.066700
     45 H13          3.3530    -3.2970     3.4460 h1         1 09L       0.066700
     46 H14          4.8560    -4.3700     5.3200 ha         1 09L       0.144000
     47 H15          3.3890    -4.0610    10.0310 ha         1 09L       0.152000
     48 H16          3.9930    -6.2410     9.0600 ha         1 09L       0.141000
     49 H17          4.2590    -7.5500     7.0370 hc         1 09L       0.067700
     50 H18          4.6170    -6.7750     5.4880 hc         1 09L       0.067700
     51 H19          5.1080    -9.0940     5.4480 ha         1 09L       0.136000
     52 H20          6.2040   -11.1350     4.6680 ha         1 09L       0.136000
     53 H21          8.6100   -11.4900     5.0340 ha         1 09L       0.140000
     54 H22          9.9630    -9.7940     6.1950 ha         1 09L       0.162000
     55 H23          8.9060    -5.5870     8.0760 hn         1 09L       0.372500
@<TRIPOS>BOND
     1    26    27 ar
     2    26    25 ar
     3    27    28 ar
     4    30    29 2
     5    25    24 ar
     6    28    29 1
     7    28    23 ar
     8    29    31 1
     9    24    23 ar
    10    23    22 1
    11    31    32 1
    12    22    32 2
    13    22    21 1
    14    21    20 1
    15    13    12 2
    16    15    20 ar
    17    15    14 ar
    18    20    19 ar
    19    12    14 1
    20    12    11 1
    21     8    11 1
    22     8     7 1
    23    14    16 ar
    24    11    10 1
    25    19    18 ar
    26     7     6 1
    27    10     9 1
    28    16    18 ar
    29    16    17 1
    30     6     9 1
    31     6     4 1
    32     5     4 2
    33     4     3 1
    34     3     1 1
    35     3     2 1
    36     1     2 1
    37     1    33 1
    38     1    34 1
    39     2    35 1
    40     2    36 1
    41     3    37 1
    42     7    38 1
    43     7    39 1
    44     8    40 1
    45     8    41 1
    46     9    42 1
    47     9    43 1
    48    10    44 1
    49    10    45 1
    50    15    46 1
    51    18    47 1
    52    19    48 1
    53    21    49 1
    54    21    50 1
    55    24    51 1
    56    25    52 1
    57    26    53 1
    58    27    54 1
    59    31    55 1
@<TRIPOS>SUBSTRUCTURE
     1 09L         1 TEMP              0 ****  ****    0 ROOT
