@<TRIPOS>MOLECULE
molecule
   44    46     1     0     0
SMALL
bcc


@<TRIPOS>ATOM
      1 N3           0.0000     0.0000     0.0000 n          1 09M      -0.211500
      2 C4           5.6960    -0.0030     0.2260 ca         1 09M      -0.139300
      3 N2           3.4920    -0.0020     1.2420 nu         1 09M      -0.762000
      4 C7           1.3440     0.0000     0.0000 c          1 09M       0.697700
      5 C6           2.0950     0.0000     1.2570 cc         1 09M       0.144800
      6 C9          -0.0420     0.0000     2.4150 ca         1 09M      -0.032800
      7 C13         -2.1420     0.0160     3.5640 ca         1 09M      -0.154000
      8 C8           1.4210    -0.0000     2.4390 cd         1 09M      -0.243200
      9 C16          7.7640     1.1470     0.5880 ca         1 09M       0.348600
     10 O7           7.4690    -6.0510     0.6720 o          1 09M      -0.899833
     11 P            6.1950    -5.1340     0.3140 p5         1 09M       1.162900
     12 O1           5.6840    -5.4820    -1.1730 o          1 09M      -0.899833
     13 O2           5.1090    -5.3980     1.2840 o          1 09M      -0.899833
     14 O3           6.6140    -3.5810     0.3870 os         1 09M      -0.575200
     15 C2           6.3940    -1.1940     0.3490 ca         1 09M      -0.135600
     16 C3           7.7550    -1.1570     0.5870 ca         1 09M       0.444200
     17 N1           8.3920    -0.0080     0.6980 nb         1 09M      -0.698000
     18 C17          8.5390     2.4330     0.7240 c3         1 09M      -0.127400
     19 C15          6.4000     1.1910     0.3430 ca         1 09M      -0.029200
     20 O6           5.7580     2.3840     0.2300 oh         1 09M      -0.529100
     21 C5           4.2110    -0.0020    -0.0340 c3         1 09M       0.287100
     22 C14         -0.7760     0.0060     3.6070 ca         1 09M      -0.104000
     23 C12         -2.8080     0.0170     2.3470 ca         1 09M      -0.134000
     24 C11         -2.1060     0.0110     1.1610 ca         1 09M      -0.150000
     25 C10         -0.7140     0.0060     1.1800 ca         1 09M       0.046600
     26 O5          -0.6950     0.0000    -1.2340 oh         1 09M      -0.373100
     27 O4           1.9460    -0.0000    -1.0590 o          1 09M      -0.616500
     28 H1           4.0020    -0.0010     2.1030 hn         1 09M       0.459800
     29 H2          -2.7080     0.0210     4.4870 ha         1 09M       0.116000
     30 H3           1.9480     0.2120     3.3620 ha         1 09M       0.143000
     31 H6           5.2190    -2.5840    -0.7560 h1         1 09M       0.041200
     32 H7           4.9130    -2.5840     0.9860 h1         1 09M       0.041200
     33 H8           8.3060    -2.0850     0.6840 h4         1 09M       0.087100
     34 H9           8.5520     2.9490    -0.2290 hc         1 09M       0.035033
     35 H10          8.0670     3.0620     1.4690 hc         1 09M       0.035033
     36 H11          9.5550     2.2120     1.0290 hc         1 09M       0.035033
     37 H12          5.9050     2.7400    -0.6300 ho         1 09M       0.403000
     38 H13          3.9450     0.8830    -0.5990 h1         1 09M       0.070200
     39 H14          3.9430    -0.8860    -0.6000 h1         1 09M       0.070200
     40 H15         -0.2630     0.0060     4.5610 ha         1 09M       0.134000
     41 H16         -3.8910     0.0250     2.3290 ha         1 09M       0.116000
     42 H17         -2.6370     0.0110     0.2170 ha         1 09M       0.136000
     43 H18         -0.6880    -0.8690    -1.5990 ho         1 09M       0.414000
     44 C1           5.6780    -2.5140     0.2230 c3         1 09M       0.245700
@<TRIPOS>BOND
     1    18     9 1
     2     9    17 ar
     3     9    19 ar
     4    17    16 ar
     5    20    19 1
     6    19     2 ar
     7    16    15 ar
     8     2    15 ar
     9     2    21 1
    10    15    44 1
    11    14    44 1
    12    14    11 1
    13    21     3 1
    14    13    11 1
    15     3     5 1
    16    27     4 2
    17    11    10 1
    18    11    12 1
    19     5     4 1
    20     5     8 2
    21     4     1 1
    22     8     6 1
    23     1    26 1
    24     1    25 1
    25     6    25 ar
    26     6    22 ar
    27    25    24 ar
    28    22     7 ar
    29    24    23 ar
    30     7    23 ar
    31     3    28 1
    32     7    29 1
    33     8    30 1
    34    44    31 1
    35    44    32 1
    36    16    33 1
    37    18    34 1
    38    18    35 1
    39    18    36 1
    40    20    37 1
    41    21    38 1
    42    21    39 1
    43    22    40 1
    44    23    41 1
    45    24    42 1
    46    26    43 1
@<TRIPOS>SUBSTRUCTURE
     1 09M         1 TEMP              0 ****  ****    0 ROOT
