@<TRIPOS>MOLECULE
09M
   45    47     1     0     0
SMALL
bcc


@<TRIPOS>ATOM
      1 N3           0.0540    -0.7000     0.1380 n          1 09M      -0.199500
      2 C4           5.4040     0.9130     2.3660 cc         1 09M       0.157000
      3 N2           3.7020    -0.3910     1.0830 ny         1 09M      -0.388600
      4 C7           1.4670    -0.6210     0.0020 c          1 09M       0.680700
      5 C6           2.2390    -0.3280     1.2240 cc         1 09M      -0.186200
      6 C9           0.1810     0.0360     2.4600 ca         1 09M      -0.137800
      7 C13         -1.8430     0.4220     3.7320 ca         1 09M      -0.169000
      8 C8           1.6180     0.0050     2.3900 cd         1 09M       0.076800
      9 C16          7.2850     2.2430     1.4680 cd         1 09M       0.064800
     10 O7           2.1310     0.6390     5.5890 oh         1 09M      -0.807400
     11 P            3.4100     0.0160     6.4360 p5         1 09M       1.417800
     12 O1           3.7050     1.1290     7.3620 o          1 09M      -0.827000
     13 O2           3.1380    -1.3950     6.7520 o          1 09M      -0.827000
     14 O3           4.5000     0.0590     5.1960 os         1 09M      -0.564200
     15 C2           5.7360     1.4760     3.6390 cc         1 09M      -0.172200
     16 C3           6.8600     2.3020     3.7300 cd         1 09M       0.027000
     17 N1           7.6370     2.6890     2.6930 n2         1 09M      -0.379000
     18 C17          8.0830     2.6470     0.2700 c3         1 09M      -0.040900
     19 C15          6.1910     1.3700     1.2720 cc         1 09M      -0.118900
     20 O6           5.8690     0.9780    -0.0240 oh         1 09M      -0.546100
     21 C5           4.4040    -0.0600     2.2780 c2         1 09M      -0.511000
     22 C14         -0.4600     0.3440     3.6750 ca         1 09M      -0.044000
     23 C12         -2.6080     0.1950     2.5820 ca         1 09M      -0.083000
     24 C11         -2.0070    -0.1340     1.3770 ca         1 09M      -0.168000
     25 C10         -0.5990    -0.2410     1.3050 ca         1 09M       0.083600
     26 O5          -0.6570    -0.6060    -0.9860 oh         1 09M      -0.399100
     27 O4           1.9760    -0.8980    -1.1030 o          1 09M      -0.650500
     28 C1           4.8510     1.3640     4.8380 c3         1 09M       0.235600
     29 H1           3.9150    -1.3570     0.8060 hn         1 09M       0.427800
     30 H2          -2.3400     0.6620     4.6830 ha         1 09M       0.142000
     31 H3           2.1830     0.2710     3.3160 ha         1 09M       0.240000
     32 H6           3.8970     1.9310     4.6110 h1         1 09M       0.022700
     33 H7           5.3380     1.8480     5.7340 h1         1 09M       0.022700
     34 H8           7.1670     2.7120     4.7100 h4         1 09M       0.143000
     35 H9           7.3900     2.9990    -0.5330 hc         1 09M       0.037367
     36 H10          8.6460     1.7600    -0.1140 hc         1 09M       0.037367
     37 H11          8.8130     3.4600     0.5010 hc         1 09M       0.037367
     38 H12          6.6010     0.4170    -0.3180 ho         1 09M       0.394000
     39 H13          1.9620     1.5380     5.8480 ho         1 09M       0.423000
     40 H14          4.0950    -0.6200     3.1710 hx         1 09M       0.205000
     41 H15          0.1700     0.5060     4.5750 ha         1 09M       0.207000
     42 H16         -3.7050     0.2750     2.6340 ha         1 09M       0.130000
     43 H17         -2.6150    -0.3160     0.4780 ha         1 09M       0.147000
     44 H18         -0.4090    -1.3920    -1.5190 ho         1 09M       0.433000
     45 H23          3.9780     0.2320     0.3090 hn         1 09M       0.427800
@<TRIPOS>BOND
     1     1     4 1   
     2     1    25 1   
     3     1    26 1   
     4     2    15 1   
     5     2    19 1   
     6     2    21 2   
     7     3     5 1   
     8     3    21 1   
     9     3    29 1   
    10     3    45 1   
    11     4     5 1   
    12     4    27 2   
    13     5     8 2   
    14     6     8 1   
    15     6    22 ar  
    16     6    25 ar  
    17     7    22 ar  
    18     7    23 ar  
    19     7    30 1   
    20     8    31 1   
    21     9    17 1   
    22     9    18 1   
    23     9    19 2   
    24    10    11 1   
    25    10    39 1   
    26    11    12 1   
    27    11    13 1   
    28    11    14 1   
    29    14    28 1   
    30    15    16 2   
    31    15    28 1   
    32    16    17 1   
    33    16    34 1   
    34    18    35 1   
    35    18    36 1   
    36    18    37 1   
    37    19    20 1   
    38    20    38 1   
    39    21    40 1   
    40    22    41 1   
    41    23    24 ar  
    42    23    42 1   
    43    24    25 ar  
    44    24    43 1   
    45    26    44 1   
    46    28    32 1   
    47    28    33 1   
@<TRIPOS>SUBSTRUCTURE
     1 09M         1 TEMP              0 ****  ****    0 ROOT
