@<TRIPOS>MOLECULE
09M
   44    46     1     0     0
SMALL
bcc


@<TRIPOS>ATOM
      1 N3           0.0000     0.0000     0.0000 n          1 09M       0.221500
      2 C4           5.6960    -0.0030     0.2260 ca         1 09M      -0.168300
      3 N2           3.4920    -0.0020     1.2420 nu         1 09M      -0.308000
      4 C7           1.3440     0.0000     0.0000 c          1 09M       0.598700
      5 C6           2.0950     0.0000     1.2570 cc         1 09M      -0.009200
      6 C9          -0.0420     0.0000     2.4150 ca         1 09M      -0.001800
      7 C13         -2.1420     0.0160     3.5640 ca         1 09M      -0.124000
      8 C8           1.4210    -0.0000     2.4390 cd         1 09M      -0.259200
      9 C16          7.7640     1.1470     0.5880 ca         1 09M       0.273600
     10 O7           7.4690    -6.0510     0.6720 o          1 09M      -0.745500
     11 P            6.1950    -5.1340     0.3140 p5         1 09M       0.659900
     12 O1           5.6840    -5.4820    -1.1730 o          1 09M      -0.745500
     13 O2           5.1090    -5.3980     1.2840 o          1 09M      -0.745500
     14 O3           6.6140    -3.5810     0.3870 os         1 09M      -0.473200
     15 C2           6.3940    -1.1940     0.3490 ca         1 09M      -0.124600
     16 C3           7.7550    -1.1570     0.5870 ca         1 09M       0.411200
     17 N1           8.3920    -0.0080     0.6980 nb         1 09M      -0.588000
     18 C17          8.5390     2.4330     0.7240 c3         1 09M      -0.021400
     19 C15          6.4000     1.1910     0.3430 ca         1 09M      -0.006200
     20 O6           5.7580     2.3840     0.2300 oh         1 09M      -0.506100
     21 C5           4.2110    -0.0020    -0.0340 c3         1 09M       0.202100
     22 C14         -0.7760     0.0060     3.6070 ca         1 09M      -0.088000
     23 C12         -2.8080     0.0170     2.3470 ca         1 09M      -0.119000
     24 C11         -2.1060     0.0110     1.1610 ca         1 09M      -0.121000
     25 C10         -0.7140     0.0060     1.1800 ca         1 09M      -0.128400
     26 O5          -0.6950     0.0000    -1.2340 oh         1 09M      -0.464100
     27 O4           1.9460    -0.0000    -1.0590 o          1 09M      -0.673500
     28 H1           4.0020    -0.0010     2.1030 hn         1 09M       0.299800
     29 H2          -2.7080     0.0210     4.4870 ha         1 09M       0.090000
     30 H3           1.9480     0.2120     3.3620 ha         1 09M       0.123000
     31 H6           5.2190    -2.5840    -0.7560 h1         1 09M      -0.003300
     32 H7           4.9130    -2.5840     0.9860 h1         1 09M      -0.003300
     33 H8           8.3060    -2.0850     0.6840 h4         1 09M       0.043100
     34 H9           8.5520     2.9490    -0.2290 hc         1 09M      -0.003633
     35 H10          8.0670     3.0620     1.4690 hc         1 09M      -0.003633
     36 H11          9.5550     2.2120     1.0290 hc         1 09M      -0.003633
     37 H12          5.9050     2.7400    -0.6300 ho         1 09M       0.388000
     38 H13          3.9450     0.8830    -0.5990 h1         1 09M       0.050200
     39 H14          3.9430    -0.8860    -0.6000 h1         1 09M       0.050200
     40 H15         -0.2630     0.0060     4.5610 ha         1 09M       0.105000
     41 H16         -3.8910     0.0250     2.3290 ha         1 09M       0.089000
     42 H17         -2.6370     0.0110     0.2170 ha         1 09M       0.110000
     43 H18         -0.6880    -0.8690    -1.5990 ho         1 09M       0.410000
     44 C1           5.6780    -2.5140     0.2230 c3         1 09M       0.314700
@<TRIPOS>BOND
     1     1     4 1   
     2     1    25 1   
     3     1    26 1   
     4     2    15 ar  
     5     2    19 ar  
     6     2    21 1   
     7     3     5 1   
     8     3    21 1   
     9     3    28 1   
    10     4     5 1   
    11     4    27 2   
    12     5     8 2   
    13     6     8 1   
    14     6    22 ar  
    15     6    25 ar  
    16     7    22 ar  
    17     7    23 ar  
    18     7    29 1   
    19     8    30 1   
    20     9    17 ar  
    21     9    18 1   
    22     9    19 ar  
    23    10    11 1   
    24    11    12 1   
    25    11    13 1   
    26    11    14 1   
    27    14    44 1   
    28    15    16 ar  
    29    15    44 1   
    30    16    17 ar  
    31    16    33 1   
    32    18    34 1   
    33    18    35 1   
    34    18    36 1   
    35    19    20 1   
    36    20    37 1   
    37    21    38 1   
    38    21    39 1   
    39    22    40 1   
    40    23    24 ar  
    41    23    41 1   
    42    24    25 ar  
    43    24    42 1   
    44    26    43 1   
    45    31    44 1   
    46    32    44 1   
@<TRIPOS>SUBSTRUCTURE
     1 09M         1 TEMP              0 ****  ****    0 ROOT
