@<TRIPOS>MOLECULE
09O
   28    29     1     0     0
SMALL
bcc


@<TRIPOS>ATOM
      1 C1           0.0000     0.0000     0.0000 c3         1 09O       0.123800
      2 C2           1.5420     0.0000     0.0000 c3         1 09O       0.148800
      3 N1           2.0690     0.0000     1.2970 n7         1 09O      -0.576200
      4 C3           1.7040    -1.1910     2.0950 c3         1 09O       0.141800
      5 C4           0.3050    -1.0000     2.6270 c3         1 09O      -0.035400
      6 C5          -0.7550    -1.6050     1.6930 c3         1 09O       0.128800
      7 N2          -0.4700    -1.3430     0.2630 nh         1 09O      -0.349000
      8 C6          -3.7640    -2.2910    -2.0200 ca         1 09O       0.368200
      9 N3          -3.7830    -2.4430    -0.7100 nb         1 09O      -0.554000
     10 C7          -2.7400    -2.1460     0.0390 ca         1 09O       0.332200
     11 C8          -1.5730    -1.6570    -0.5340 ca         1 09O      -0.091700
     12 C9          -1.5200    -1.4840    -1.9150 ca         1 09O      -0.108000
     13 C10         -2.6380    -1.8140    -2.6640 ca         1 09O      -0.192300
     14 H1          -0.3620     0.3260    -0.9680 h1         1 09O       0.031200
     15 H2          -0.3620     0.6680     0.7730 h1         1 09O       0.031200
     16 H3           1.8930     0.8830    -0.5200 h1         1 09O       0.006200
     17 H4           1.8930    -0.8830    -0.5200 h1         1 09O       0.006200
     18 H5           3.0650     0.0800     1.2530 hn         1 09O       0.251800
     19 H7           1.7370    -2.0730     1.4680 h1         1 09O       0.015700
     20 H8           2.3950    -1.2990     2.9220 h1         1 09O       0.015700
     21 H9           0.2310    -1.4770     3.5970 hc         1 09O       0.027200
     22 H10          0.1120     0.0600     2.7350 hc         1 09O       0.027200
     23 H11         -0.7870    -2.6770     1.8510 h1         1 09O       0.020700
     24 H12         -1.7200    -1.1800     1.9400 h1         1 09O       0.020700
     25 H14         -2.7940    -2.2850     1.1120 h4         1 09O      -0.000900
     26 H15         -0.6240    -1.1070    -2.3930 ha         1 09O       0.119000
     27 H16         -2.6320    -1.6920    -3.7400 ha         1 09O       0.111000
     28 H13         -4.6420    -2.5490    -2.6010 h4         1 09O      -0.019900
@<TRIPOS>BOND
     1     1     2 1   
     2     1     7 1   
     3     1    14 1   
     4     1    15 1   
     5     2     3 1   
     6     2    16 1   
     7     2    17 1   
     8     3     4 1   
     9     3    18 1   
    10     4     5 1   
    11     4    19 1   
    12     4    20 1   
    13     5     6 1   
    14     5    21 1   
    15     5    22 1   
    16     6     7 1   
    17     6    23 1   
    18     6    24 1   
    19     7    11 1   
    20     8     9 ar  
    21     8    13 ar  
    22     8    28 1   
    23     9    10 ar  
    24    10    11 ar  
    25    10    25 1   
    26    11    12 ar  
    27    12    13 ar  
    28    12    26 1   
    29    13    27 1   
@<TRIPOS>SUBSTRUCTURE
     1 09O         1 TEMP              0 ****  ****    0 ROOT
