@<TRIPOS>MOLECULE
09O
   28    29     1     0     0
SMALL
bcc


@<TRIPOS>ATOM
      1 C1           0.0320    -0.0970     0.0750 c3         1 09O       0.203800
      2 C2           1.5340     0.2250    -0.0520 c3         1 09O       0.154800
      3 N1           2.2750     0.0440     1.1750 n7         1 09O      -0.828200
      4 C3           2.3160     1.1980     2.0470 c3         1 09O       0.170800
      5 C4           0.9720     1.5520     2.6730 c3         1 09O      -0.113400
      6 C5          -0.1030     1.8350     1.6260 c3         1 09O       0.203800
      7 N2          -0.7420     0.6990     1.0060 nh         1 09O      -0.647000
      8 C6          -3.8600    -1.3120     2.9250 ca         1 09O       0.347200
      9 N3          -3.5200    -1.6610     1.6690 nb         1 09O      -0.642000
     10 C7          -2.4980    -1.0180     1.0910 ca         1 09O       0.347200
     11 C8          -1.7380     0.0180     1.7260 ca         1 09O       0.053300
     12 C9          -2.1160     0.3510     3.0480 ca         1 09O      -0.162000
     13 C10         -3.1850    -0.3130     3.6450 ca         1 09O      -0.211300
     14 H1          -0.4220     0.0660    -0.9470 h1         1 09O       0.048700
     15 H2          -0.0620    -1.1940     0.3260 h1         1 09O       0.048700
     16 H3           1.6530     1.2650    -0.4770 h1         1 09O       0.035700
     17 H4           1.9370    -0.4970    -0.8210 h1         1 09O       0.035700
     18 H5           3.2100    -0.2560     0.9720 hn         1 09O       0.366800
     19 H7           2.7040     2.1170     1.5100 h1         1 09O       0.027200
     20 H8           3.0410     0.9640     2.8790 h1         1 09O       0.027200
     21 H9           0.6440     0.7300     3.3610 hc         1 09O       0.056200
     22 H10          1.1150     2.4780     3.2910 hc         1 09O       0.056200
     23 H11          0.3500     2.4500     0.7950 h1         1 09O       0.052700
     24 H12         -0.9100     2.4650     2.1000 h1         1 09O       0.052700
     25 H14         -2.2700    -1.3330     0.0560 h4         1 09O       0.021100
     26 H15         -1.5790     1.1240     3.6160 ha         1 09O       0.137000
     27 H16         -3.4930    -0.0630     4.6690 ha         1 09O       0.138000
     28 H13         -4.7080    -1.8610     3.3660 h4         1 09O       0.020100
@<TRIPOS>BOND
     1     1     2 1   
     2     1     7 1   
     3     1    14 1   
     4     1    15 1   
     5     2     3 1   
     6     2    16 1   
     7     2    17 1   
     8     3     4 1   
     9     3    18 1   
    10     4     5 1   
    11     4    19 1   
    12     4    20 1   
    13     5     6 1   
    14     5    21 1   
    15     5    22 1   
    16     6     7 1   
    17     6    23 1   
    18     6    24 1   
    19     7    11 1   
    20     8     9 ar  
    21     8    13 ar  
    22     8    28 1   
    23     9    10 ar  
    24    10    11 ar  
    25    10    25 1   
    26    11    12 ar  
    27    12    13 ar  
    28    12    26 1   
    29    13    27 1   
@<TRIPOS>SUBSTRUCTURE
     1 09O         1 TEMP              0 ****  ****    0 ROOT
