@<TRIPOS>MOLECULE
molecule
   28    29     1     0     0
SMALL
bcc


@<TRIPOS>ATOM
      1 C1           0.0000     0.0000     0.0000 c3         1 09O       0.167800
      2 C2           1.5420     0.0000     0.0000 c3         1 09O       0.171800
      3 N1           2.0690     0.0000     1.2970 n7         1 09O      -0.836200
      4 C3           1.7040    -1.1910     2.0950 c3         1 09O       0.167800
      5 C4           0.3050    -1.0000     2.6270 c3         1 09O      -0.086400
      6 C5          -0.7550    -1.6050     1.6930 c3         1 09O       0.162800
      7 N2          -0.4700    -1.3430     0.2630 nh         1 09O      -0.605000
      8 C6          -3.7640    -2.2910    -2.0200 ca         1 09O       0.385200
      9 N3          -3.7830    -2.4430    -0.7100 nb         1 09O      -0.667000
     10 C7          -2.7400    -2.1460     0.0390 ca         1 09O       0.361200
     11 C8          -1.5730    -1.6570    -0.5340 ca         1 09O      -0.009700
     12 C9          -1.5200    -1.4840    -1.9150 ca         1 09O      -0.128000
     13 C10         -2.6380    -1.8140    -2.6640 ca         1 09O      -0.228300
     14 H1          -0.3620     0.3260    -0.9680 h1         1 09O       0.052700
     15 H2          -0.3620     0.6680     0.7730 h1         1 09O       0.052700
     16 H3           1.8930     0.8830    -0.5200 h1         1 09O       0.032200
     17 H4           1.8930    -0.8830    -0.5200 h1         1 09O       0.032200
     18 H5           3.0650     0.0800     1.2530 hn         1 09O       0.359800
     19 H7           1.7370    -2.0730     1.4680 h1         1 09O       0.041700
     20 H8           2.3950    -1.2990     2.9220 h1         1 09O       0.041700
     21 H9           0.2310    -1.4770     3.5970 hc         1 09O       0.056200
     22 H10          0.1120     0.0600     2.7350 hc         1 09O       0.056200
     23 H11         -0.7870    -2.6770     1.8510 h1         1 09O       0.044200
     24 H12         -1.7200    -1.1800     1.9400 h1         1 09O       0.044200
     25 H14         -2.7940    -2.2850     1.1120 h4         1 09O       0.029100
     26 H15         -0.6240    -1.1070    -2.3930 ha         1 09O       0.143000
     27 H16         -2.6320    -1.6920    -3.7400 ha         1 09O       0.137000
     28 H13         -4.6420    -2.5490    -2.6010 h4         1 09O       0.022100
@<TRIPOS>BOND
     1     4     5 1   
     2     4     3 1   
     3     5     6 1   
     4     3     2 1   
     5     6     7 1   
     6     2     1 1   
     7     7     1 1   
     8     7    11 1   
     9    12    11 ar  
    10    12    13 ar  
    11    11    10 ar  
    12    13     8 ar  
    13    10     9 ar  
    14     8     9 ar  
    15     1    14 1   
    16     1    15 1   
    17     2    16 1   
    18     2    17 1   
    19     3    18 1   
    20     4    19 1   
    21     4    20 1   
    22     5    21 1   
    23     5    22 1   
    24     6    23 1   
    25     6    24 1   
    26     8    28 1   
    27    10    25 1   
    28    12    26 1   
    29    13    27 1   
@<TRIPOS>SUBSTRUCTURE
     1 09O         1 TEMP              0 ****  ****    0 ROOT
