@<TRIPOS>MOLECULE
09P
   35    36     1     0     0
SMALL
bcc


@<TRIPOS>ATOM
      1 C1           0.0000     0.0000     0.0000 c3         1 09P       0.138800
      2 N1           1.4800     0.0000     0.0000 n7         1 09P      -0.570200
      3 C2           1.9720     0.0000     1.3540 c3         1 09P       0.140800
      4 C3           2.2750    -1.4210     1.8760 c3         1 09P      -0.014400
      5 C4           1.1940    -2.4320     1.4400 c3         1 09P       0.137800
      6 N2          -0.1390    -1.8930     1.5340 nh         1 09P      -0.346000
      7 C5          -0.5510    -1.3340     0.2260 c3         1 09P       0.116800
      8 C6          -2.7650    -4.7630     2.8990 ca         1 09P       0.269200
      9 C7          -2.9110    -4.3070     1.5960 ca         1 09P       0.063800
     10 C8          -2.0350    -3.3390     1.1170 ca         1 09P      -0.187000
     11 C9          -1.0430    -2.8660     1.9700 ca         1 09P      -0.053700
     12 C10         -0.9630    -3.3730     3.2610 ca         1 09P       0.336200
     13 N3          -1.8130    -4.2910     3.6780 nb         1 09P      -0.523000
     14 C11         -4.7520    -5.7930     1.3670 c3         1 09P       0.201400
     15 C12         -5.7900    -6.2240     0.3280 c3         1 09P       0.001900
     16 H1          -0.3500     0.6610     0.7840 h1         1 09P       0.013200
     17 H2          -0.3500     0.3650    -0.9580 h1         1 09P       0.013200
     18 H3           1.8140     0.8150    -0.4760 hn         1 09P       0.251800
     19 H5           1.2270     0.4550     1.9960 h1         1 09P       0.008700
     20 H6           2.8820     0.5870     1.3950 h1         1 09P       0.008700
     21 H7           2.3180    -1.3970     2.9580 hc         1 09P       0.014200
     22 H8           3.2340    -1.7420     1.4870 hc         1 09P       0.014200
     23 H9           1.3810    -2.7210     0.4130 h1         1 09P       0.022200
     24 H10          1.2600    -3.3080     2.0740 h1         1 09P       0.022200
     25 H11         -0.2060    -1.9930    -0.5610 h1         1 09P       0.028700
     26 H12         -1.6320    -1.2750     0.1950 h1         1 09P       0.028700
     27 H13         -3.4430    -5.5170     3.2800 h4         1 09P      -0.005900
     28 H14         -2.1230    -2.9630     0.1040 ha         1 09P       0.140000
     29 H15         -0.1940    -3.0110     3.9320 h4         1 09P      -0.007900
     30 H16         -5.2570    -5.3820     2.2330 h1         1 09P       0.001700
     31 H17         -4.1630    -6.6510     1.6660 h1         1 09P       0.001700
     32 H18         -6.4390    -6.9770     0.7580 hc         1 09P       0.011700
     33 H19         -5.2850    -6.6340    -0.5380 hc         1 09P       0.011700
     34 H20         -6.3800    -5.3660     0.0300 hc         1 09P       0.011700
     35 O1          -3.8950    -4.8000     0.8000 os         1 09P      -0.301900
@<TRIPOS>BOND
     1     1     2 1   
     2     1     7 1   
     3     1    16 1   
     4     1    17 1   
     5     2     3 1   
     6     2    18 1   
     7     3     4 1   
     8     3    19 1   
     9     3    20 1   
    10     4     5 1   
    11     4    21 1   
    12     4    22 1   
    13     5     6 1   
    14     5    23 1   
    15     5    24 1   
    16     6     7 1   
    17     6    11 1   
    18     7    25 1   
    19     7    26 1   
    20     8     9 ar  
    21     8    13 ar  
    22     8    27 1   
    23     9    10 ar  
    24     9    35 1   
    25    10    11 ar  
    26    10    28 1   
    27    11    12 ar  
    28    12    13 ar  
    29    12    29 1   
    30    14    15 1   
    31    14    30 1   
    32    14    31 1   
    33    14    35 1   
    34    15    32 1   
    35    15    33 1   
    36    15    34 1   
@<TRIPOS>SUBSTRUCTURE
     1 09P         1 TEMP              0 ****  ****    0 ROOT
