@<TRIPOS>MOLECULE
09P
   35    36     1     0     0
SMALL
bcc


@<TRIPOS>ATOM
      1 C1          -0.0070    -0.0870     0.2320 c3         1 09P       0.154800
      2 N1           1.4180     0.1430     0.1610 n7         1 09P      -0.828200
      3 C2           2.1290     0.0030     1.4130 c3         1 09P       0.170800
      4 C3           2.1850    -1.4270     1.9390 c3         1 09P      -0.113400
      5 C4           0.7950    -2.0230     2.1550 c3         1 09P       0.205800
      6 N2           0.1010    -2.5220     0.9930 nh         1 09P      -0.650000
      7 C5          -0.4100    -1.5620     0.0350 c3         1 09P       0.204800
      8 C6           0.8760    -6.3400    -0.5290 ca         1 09P       0.327200
      9 C7           1.7070    -5.8530     0.5150 ca         1 09P       0.045800
     10 C8           1.5010    -4.5680     1.0210 ca         1 09P      -0.240000
     11 C9           0.4520    -3.7830     0.4850 ca         1 09P       0.090300
     12 C10         -0.3210    -4.3700    -0.5660 ca         1 09P       0.307200
     13 N3          -0.1110    -5.6010    -1.0530 nb         1 09P      -0.615000
     14 C11          3.5050    -6.3480     2.0290 c3         1 09P       0.127400
     15 C12          2.7730    -6.4900     3.3420 c3         1 09P      -0.132100
     16 H1          -0.5020     0.4790    -0.6100 h1         1 09P       0.036200
     17 H2          -0.4560     0.2910     1.1970 h1         1 09P       0.036200
     18 H3           1.6020     1.0480    -0.2300 hn         1 09P       0.367800
     19 H5           1.6850     0.6560     2.2240 h1         1 09P       0.027200
     20 H6           3.1860     0.3550     1.2390 h1         1 09P       0.027200
     21 H7           2.7180    -1.4090     2.9250 hc         1 09P       0.055200
     22 H8           2.7820    -2.0670     1.2390 hc         1 09P       0.055200
     23 H9           0.8770    -2.8700     2.8960 h1         1 09P       0.051700
     24 H10          0.1320    -1.2390     2.6230 h1         1 09P       0.051700
     25 H11         -1.5370    -1.6020     0.1030 h1         1 09P       0.050200
     26 H12         -0.1130    -1.8610    -1.0120 h1         1 09P       0.050200
     27 H13          1.0300    -7.3500    -0.9420 h4         1 09P       0.035100
     28 H14          2.1480    -4.1760     1.8180 ha         1 09P       0.142000
     29 H15         -1.1610    -3.8210    -1.0290 h4         1 09P       0.023100
     30 H16          4.3540    -7.0830     1.9640 h1         1 09P       0.055700
     31 H17          3.9050    -5.3100     1.8890 h1         1 09P       0.055700
     32 H18          1.9010    -5.7930     3.3880 hc         1 09P       0.048700
     33 H19          2.3910    -7.5330     3.4620 hc         1 09P       0.048700
     34 H20          3.4670    -6.2600     4.1850 hc         1 09P       0.048700
     35 O1           2.6920    -6.7270     0.9170 os         1 09P      -0.322900
@<TRIPOS>BOND
     1     1     2 1   
     2     1     7 1   
     3     1    16 1   
     4     1    17 1   
     5     2     3 1   
     6     2    18 1   
     7     3     4 1   
     8     3    19 1   
     9     3    20 1   
    10     4     5 1   
    11     4    21 1   
    12     4    22 1   
    13     5     6 1   
    14     5    23 1   
    15     5    24 1   
    16     6     7 1   
    17     6    11 1   
    18     7    25 1   
    19     7    26 1   
    20     8     9 ar  
    21     8    13 ar  
    22     8    27 1   
    23     9    10 ar  
    24     9    35 1   
    25    10    11 ar  
    26    10    28 1   
    27    11    12 ar  
    28    12    13 ar  
    29    12    29 1   
    30    14    15 1   
    31    14    30 1   
    32    14    31 1   
    33    14    35 1   
    34    15    32 1   
    35    15    33 1   
    36    15    34 1   
@<TRIPOS>SUBSTRUCTURE
     1 09P         1 TEMP              0 ****  ****    0 ROOT
