@<TRIPOS>MOLECULE
09Q
   38    40     1     0     0
SMALL
bcc


@<TRIPOS>ATOM
      1 C1           0.0000     0.0000     0.0000 cp         1 09Q      -0.030000
      2 C2           1.3940     0.0000     0.0000 ca         1 09Q      -0.097500
      3 C3           2.0810     0.0000     1.1970 ca         1 09Q      -0.096500
      4 C4           1.3900    -0.0010     2.3950 ca         1 09Q      -0.098000
      5 C5           0.0070    -0.0010     2.4010 ca         1 09Q      -0.096500
      6 C6          -0.6910     0.0060     1.2090 ca         1 09Q      -0.097500
      7 C7          -2.1920     0.0000    -3.5960 ca         1 09Q       0.422200
      8 C8          -2.1380     0.0060    -1.2920 ca         1 09Q       0.392200
      9 C9          -0.7440     0.0000    -1.2840 cp         1 09Q      -0.142300
     10 C10         -0.0600     0.0050    -2.5000 ca         1 09Q      -0.096000
     11 C11         -0.8030     0.0000    -3.6750 ca         1 09Q      -0.121700
     12 C12         -0.2480    -0.0570    -6.0570 c3         1 09Q       0.145800
     13 C13          0.6220    -0.2760    -7.3160 c3         1 09Q      -0.069400
     14 C14          1.3420     1.0070    -7.6420 c3         1 09Q       0.132800
     15 C15          2.7390     0.5920    -5.6370 c3         1 09Q       0.146800
     16 C16          1.5380     1.0350    -4.8400 c3         1 09Q       0.142800
     17 N1           0.5300    -0.0430    -4.8920 nh         1 09Q      -0.400000
     18 N2           2.6880     1.0850    -7.0290 n7         1 09Q      -0.591200
     19 N3          -2.8040     0.0070    -2.4290 nb         1 09Q      -0.569000
     20 H1           1.9370    -0.0020    -0.9370 ha         1 09Q       0.111000
     21 H2           3.1640    -0.0000     1.1980 ha         1 09Q       0.103500
     22 H3           1.9340    -0.0040     3.3320 ha         1 09Q       0.103000
     23 H4          -0.5300     0.0010     3.3420 ha         1 09Q       0.103500
     24 H5          -1.7740     0.0060     1.2150 ha         1 09Q       0.111000
     25 H7          -2.6790     0.0110    -0.3540 h4         1 09Q      -0.010900
     26 H8           1.0230     0.0040    -2.5290 ha         1 09Q       0.135000
     27 H9          -0.7660     0.8910    -6.1470 h1         1 09Q       0.016700
     28 H10         -0.9740    -0.8570    -5.9870 h1         1 09Q       0.016700
     29 H11         -0.0120    -0.5570    -8.1480 hc         1 09Q       0.029200
     30 H12          1.3460    -1.0580    -7.1230 hc         1 09Q       0.029200
     31 H13          1.4450     1.0830    -8.7180 h1         1 09Q       0.023700
     32 H14          0.7480     1.8390    -7.2840 h1         1 09Q       0.023700
     33 H15          3.6350     0.9720    -5.1630 h1         1 09Q       0.018700
     34 H16          2.7720    -0.4910    -5.6500 h1         1 09Q       0.018700
     35 H17          1.1270     1.9400    -5.2710 h1         1 09Q       0.028700
     36 H18          1.8290     1.2130    -3.8120 h1         1 09Q       0.028700
     37 H19          3.3400     0.5730    -7.5890 hn         1 09Q       0.254800
     38 H6          -2.7790    -0.0010    -4.5070 h4         1 09Q      -0.020900
@<TRIPOS>BOND
     1     1     2 ar  
     2     1     6 ar  
     3     1     9 1   
     4     2     3 ar  
     5     2    20 1   
     6     3     4 ar  
     7     3    21 1   
     8     4     5 ar  
     9     4    22 1   
    10     5     6 ar  
    11     5    23 1   
    12     6    24 1   
    13     7    11 ar  
    14     7    19 ar  
    15     7    38 1   
    16     8     9 ar  
    17     8    19 ar  
    18     8    25 1   
    19     9    10 ar  
    20    10    11 ar  
    21    10    26 1   
    22    11    17 1   
    23    12    13 1   
    24    12    17 1   
    25    12    27 1   
    26    12    28 1   
    27    13    14 1   
    28    13    29 1   
    29    13    30 1   
    30    14    18 1   
    31    14    31 1   
    32    14    32 1   
    33    15    16 1   
    34    15    18 1   
    35    15    33 1   
    36    15    34 1   
    37    16    17 1   
    38    16    35 1   
    39    16    36 1   
    40    18    37 1   
@<TRIPOS>SUBSTRUCTURE
     1 09Q         1 TEMP              0 ****  ****    0 ROOT
