@<TRIPOS>MOLECULE
09Q
   38    40     1     0     0
SMALL
bcc


@<TRIPOS>ATOM
      1 C1           0.2260     0.0520    -0.0310 cp         1 09Q      -0.035000
      2 C2           1.3210    -0.8110     0.1180 ca         1 09Q      -0.117500
      3 C3           1.9110    -0.9890     1.3670 ca         1 09Q      -0.130500
      4 C4           1.4140    -0.3120     2.4810 ca         1 09Q      -0.126000
      5 C5           0.3240     0.5460     2.3410 ca         1 09Q      -0.130500
      6 C6          -0.2680     0.7300     1.0930 ca         1 09Q      -0.117500
      7 C7          -1.5420     0.4720    -3.8260 ca         1 09Q       0.349200
      8 C8          -0.5710    -0.8560    -2.2130 ca         1 09Q       0.360200
      9 C9          -0.3940     0.2380    -1.3390 cp         1 09Q      -0.118300
     10 C10         -0.8190     1.5030    -1.7610 ca         1 09Q      -0.153000
     11 C11         -1.4190     1.6570    -3.0310 ca         1 09Q       0.053300
     12 C12         -1.9500     4.0070    -2.6040 c3         1 09Q       0.202800
     13 C13         -0.6310     4.7600    -2.4420 c3         1 09Q      -0.114400
     14 C14         -0.3640     5.7210    -3.5950 c3         1 09Q       0.170800
     15 C15         -1.5790     4.5600    -5.3680 c3         1 09Q       0.154800
     16 C16         -1.8590     3.1140    -4.9170 c3         1 09Q       0.202800
     17 N1          -1.9620     2.8690    -3.4910 nh         1 09Q      -0.646000
     18 N2          -0.3190     5.0850    -4.8930 n7         1 09Q      -0.828200
     19 N3          -1.1310    -0.7390    -3.4300 nb         1 09Q      -0.641000
     20 H1           1.7190    -1.3430    -0.7600 ha         1 09Q       0.135000
     21 H2           2.7710    -1.6660     1.4740 ha         1 09Q       0.132500
     22 H3           1.8810    -0.4560     3.4660 ha         1 09Q       0.132000
     23 H4          -0.0720     1.0790     3.2180 ha         1 09Q       0.132500
     24 H5          -1.1330     1.4020     0.9890 ha         1 09Q       0.135000
     25 H7          -0.2550    -1.8720    -1.9190 h4         1 09Q       0.024100
     26 H8          -0.6660     2.3660    -1.0950 ha         1 09Q       0.141000
     27 H9          -2.7360     4.7250    -2.9810 h1         1 09Q       0.052200
     28 H10         -2.2900     3.6520    -1.5880 h1         1 09Q       0.052200
     29 H11          0.2220     4.0400    -2.3400 hc         1 09Q       0.056700
     30 H12         -0.6830     5.3640    -1.4980 hc         1 09Q       0.056700
     31 H13          0.6400     6.2050    -3.4240 h1         1 09Q       0.027700
     32 H14         -1.1450     6.5400    -3.5550 h1         1 09Q       0.027700
     33 H15         -2.4540     5.2130    -5.0760 h1         1 09Q       0.035700
     34 H16         -1.5500     4.5280    -6.4960 h1         1 09Q       0.035700
     35 H17         -2.8530     2.8210    -5.3680 h1         1 09Q       0.048700
     36 H18         -1.0630     2.4540    -5.3710 h1         1 09Q       0.048700
     37 H19          0.0640     5.7230    -5.5660 hn         1 09Q       0.367800
     38 H6          -2.0060     0.5060    -4.8280 h4         1 09Q       0.023100
@<TRIPOS>BOND
     1     1     2 ar  
     2     1     6 ar  
     3     1     9 1   
     4     2     3 ar  
     5     2    20 1   
     6     3     4 ar  
     7     3    21 1   
     8     4     5 ar  
     9     4    22 1   
    10     5     6 ar  
    11     5    23 1   
    12     6    24 1   
    13     7    11 ar  
    14     7    19 ar  
    15     7    38 1   
    16     8     9 ar  
    17     8    19 ar  
    18     8    25 1   
    19     9    10 ar  
    20    10    11 ar  
    21    10    26 1   
    22    11    17 1   
    23    12    13 1   
    24    12    17 1   
    25    12    27 1   
    26    12    28 1   
    27    13    14 1   
    28    13    29 1   
    29    13    30 1   
    30    14    18 1   
    31    14    31 1   
    32    14    32 1   
    33    15    16 1   
    34    15    18 1   
    35    15    33 1   
    36    15    34 1   
    37    16    17 1   
    38    16    35 1   
    39    16    36 1   
    40    18    37 1   
@<TRIPOS>SUBSTRUCTURE
     1 09Q         1 TEMP              0 ****  ****    0 ROOT
