@<TRIPOS>MOLECULE
molecule
   28    29     1     0     0
SMALL
bcc


@<TRIPOS>ATOM
      1 C1           0.0000     0.0000     0.0000 ca         1 09R       0.407200
      2 C2           1.3880     0.0000     0.0000 ca         1 09R      -0.005700
      3 C3           2.0650     0.0000     1.2190 ca         1 09R      -0.154000
      4 C4           1.3190     0.0000     2.3850 ca         1 09R      -0.198300
      5 C5          -0.0620    -0.0000     2.3040 ca         1 09R       0.452500
      6 N1          -0.6720    -0.0010     1.1350 nb         1 09R      -0.649000
      7 Br1         -1.0890    -0.0010     3.8920 br         1 09R      -0.150200
      8 N2           2.0980    -0.0000    -1.2040 nh         1 09R      -0.591000
      9 C6           3.5460    -0.1960    -0.9680 c3         1 09R       0.159800
     10 C7           4.2260    -0.7410    -2.1400 c3         1 09R       0.156800
     11 N3           4.1200     0.1540    -3.3140 n7         1 09R      -0.817200
     12 C8           2.8360    -0.0190    -3.9480 c3         1 09R       0.161800
     13 C9           1.7890     1.0020    -3.4550 c3         1 09R      -0.067400
     14 C10          1.8810     1.2260    -1.9310 c3         1 09R       0.172800
     15 H1          -0.5360    -0.0000    -0.9410 h4         1 09R       0.038100
     16 H2           3.1470     0.0000     1.2520 ha         1 09R       0.150000
     17 H3           1.8110     0.0000     3.3500 ha         1 09R       0.150000
     18 H4           3.6750    -0.8810    -0.1380 h1         1 09R       0.048200
     19 H5           3.9920     0.7580    -0.7160 h1         1 09R       0.048200
     20 H6           5.2740    -0.8830    -1.9020 h1         1 09R       0.040700
     21 H7           3.7840    -1.6990    -2.3880 h1         1 09R       0.040700
     22 H8           4.8460    -0.0640    -3.9680 hn         1 09R       0.356800
     23 H11          0.9560     1.6740    -1.5890 h1         1 09R       0.045700
     24 H12          2.7010     1.9030    -1.7270 h1         1 09R       0.045700
     25 H9           2.9570     0.0950    -5.0180 h1         1 09R       0.034200
     26 H121         2.4740    -1.0180    -3.7360 h1         1 09R       0.034200
     27 H10          1.9550     1.9470    -3.9600 hc         1 09R       0.046200
     28 H14          0.7990     0.6360    -3.6980 hc         1 09R       0.046200
@<TRIPOS>BOND
     1     1     6 ar
     2     1    15 1
     3     2     1 ar
     4     3     4 ar
     5     3     2 ar
     6     3    16 1
     7     4     5 ar
     8     4    17 1
     9     5     6 ar
    10     5     7 1
    11     8     2 1
    12     8     9 1
    13     9    18 1
    14     9    19 1
    15    10     9 1
    16    10    20 1
    17    10    21 1
    18    11    10 1
    19    11    22 1
    20    12    11 1
    21    13    12 1
    22    13    14 1
    23    14     8 1
    24    14    23 1
    25    14    24 1
    26    12    25 1
    27    12    26 1
    28    13    27 1
    29    13    28 1
@<TRIPOS>SUBSTRUCTURE
     1 09R         1 TEMP              0 ****  ****    0 ROOT
