@<TRIPOS>MOLECULE
09R
   28    29     1     0     0
SMALL
bcc


@<TRIPOS>ATOM
      1 C1           0.0000     0.0000     0.0000 ca         1 09R       0.380200
      2 C2           1.3880     0.0000     0.0000 ca         1 09R      -0.085700
      3 C3           2.0650     0.0000     1.2190 ca         1 09R      -0.139000
      4 C4           1.3190     0.0000     2.3850 ca         1 09R      -0.159300
      5 C5          -0.0620    -0.0000     2.3040 ca         1 09R       0.443500
      6 N1          -0.6720    -0.0010     1.1350 nb         1 09R      -0.517000
      7 Br1         -1.0890    -0.0010     3.8920 br         1 09R      -0.206200
      8 N2           2.0980    -0.0000    -1.2040 nh         1 09R      -0.343000
      9 C6           3.5460    -0.1960    -0.9680 c3         1 09R       0.117800
     10 C7           4.2260    -0.7410    -2.1400 c3         1 09R       0.138800
     11 N3           4.1200     0.1540    -3.3140 n7         1 09R      -0.570200
     12 C8           2.8360    -0.0190    -3.9480 c3         1 09R       0.139800
     13 C9           1.7890     1.0020    -3.4550 c3         1 09R      -0.014400
     14 C10          1.8810     1.2260    -1.9310 c3         1 09R       0.136800
     15 H1          -0.5360    -0.0000    -0.9410 h4         1 09R      -0.005900
     16 H2           3.1470     0.0000     1.2520 ha         1 09R       0.132000
     17 H3           1.8110     0.0000     3.3500 ha         1 09R       0.122000
     18 H4           3.6750    -0.8810    -0.1380 h1         1 09R       0.027700
     19 H5           3.9920     0.7580    -0.7160 h1         1 09R       0.027700
     20 H6           5.2740    -0.8830    -1.9020 h1         1 09R       0.014200
     21 H7           3.7840    -1.6990    -2.3880 h1         1 09R       0.014200
     22 H8           4.8460    -0.0640    -3.9680 hn         1 09R       0.252800
     23 H11          0.9560     1.6740    -1.5890 h1         1 09R       0.022700
     24 H12          2.7010     1.9030    -1.7270 h1         1 09R       0.022700
     25 H9           2.9570     0.0950    -5.0180 h1         1 09R       0.009700
     26 H121         2.4740    -1.0180    -3.7360 h1         1 09R       0.009700
     27 H10          1.9550     1.9470    -3.9600 hc         1 09R       0.015200
     28 H14          0.7990     0.6360    -3.6980 hc         1 09R       0.015200
@<TRIPOS>BOND
     1     1     2 ar  
     2     1     6 ar  
     3     1    15 1   
     4     2     3 ar  
     5     2     8 1   
     6     3     4 ar  
     7     3    16 1   
     8     4     5 ar  
     9     4    17 1   
    10     5     6 ar  
    11     5     7 1   
    12     8     9 1   
    13     8    14 1   
    14     9    10 1   
    15     9    18 1   
    16     9    19 1   
    17    10    11 1   
    18    10    20 1   
    19    10    21 1   
    20    11    12 1   
    21    11    22 1   
    22    12    13 1   
    23    12    25 1   
    24    12    26 1   
    25    13    14 1   
    26    13    27 1   
    27    13    28 1   
    28    14    23 1   
    29    14    24 1   
@<TRIPOS>SUBSTRUCTURE
     1 09R         1 TEMP              0 ****  ****    0 ROOT
