@<TRIPOS>MOLECULE
09R
   28    29     1     0     0
SMALL
bcc


@<TRIPOS>ATOM
      1 C1          -0.0510     0.0980    -0.0300 ca         1 09R       0.347200
      2 C2           1.3820     0.0160    -0.0550 ca         1 09R       0.072300
      3 C3           2.0250    -0.0210     1.2040 ca         1 09R      -0.170000
      4 C4           1.2660     0.0340     2.3710 ca         1 09R      -0.176300
      5 C5          -0.1340     0.1160     2.2740 ca         1 09R       0.404500
      6 N1          -0.7810     0.1450     1.0870 nb         1 09R      -0.612000
      7 Br1         -1.1710     0.1880     3.8460 br         1 09R      -0.157200
      8 N2           2.0680     0.0650    -1.2750 nh         1 09R      -0.647000
      9 C6           1.4250    -0.5640    -2.4120 c3         1 09R       0.204800
     10 C7           2.3330    -1.3200    -3.4020 c3         1 09R       0.154800
     11 N3           3.0700    -2.4080    -2.8010 n7         1 09R      -0.829200
     12 C8           4.3550    -2.0480    -2.2420 c3         1 09R       0.170800
     13 C9           4.2670    -1.1680    -0.9990 c3         1 09R      -0.113400
     14 C10          3.5100     0.1330    -1.2570 c3         1 09R       0.204800
     15 H1          -0.6350     0.1400    -0.9680 h4         1 09R       0.028100
     16 H2           3.1190    -0.1000     1.2840 ha         1 09R       0.142000
     17 H3           1.7620     0.0070     3.3520 ha         1 09R       0.152000
     18 H4           0.9180     0.2590    -2.9970 h1         1 09R       0.050700
     19 H5           0.6300    -1.2840    -2.0600 h1         1 09R       0.050700
     20 H6           3.0090    -0.5790    -3.9210 h1         1 09R       0.037200
     21 H7           1.6410    -1.7460    -4.1860 h1         1 09R       0.037200
     22 H8           3.1860    -3.1530    -3.4610 hn         1 09R       0.368800
     23 H11          3.8090     0.8860    -0.4720 h1         1 09R       0.054200
     24 H12          3.8320     0.5510    -2.2550 h1         1 09R       0.054200
     25 H9           4.8780    -3.0060    -1.9580 h1         1 09R       0.028700
     26 H121         5.0080    -1.5180    -2.9990 h1         1 09R       0.028700
     27 H10          3.7900    -1.7400    -0.1610 hc         1 09R       0.057200
     28 H14          5.3130    -0.9110    -0.6870 hc         1 09R       0.057200
@<TRIPOS>BOND
     1     1     2 ar  
     2     1     6 ar  
     3     1    15 1   
     4     2     3 ar  
     5     2     8 1   
     6     3     4 ar  
     7     3    16 1   
     8     4     5 ar  
     9     4    17 1   
    10     5     6 ar  
    11     5     7 1   
    12     8     9 1   
    13     8    14 1   
    14     9    10 1   
    15     9    18 1   
    16     9    19 1   
    17    10    11 1   
    18    10    20 1   
    19    10    21 1   
    20    11    12 1   
    21    11    22 1   
    22    12    13 1   
    23    12    25 1   
    24    12    26 1   
    25    13    14 1   
    26    13    27 1   
    27    13    28 1   
    28    14    23 1   
    29    14    24 1   
@<TRIPOS>SUBSTRUCTURE
     1 09R         1 TEMP              0 ****  ****    0 ROOT
