@<TRIPOS>MOLECULE
09S
   35    36     1     0     0
SMALL
bcc


@<TRIPOS>ATOM
      1 C1          -0.0150     0.0100     0.0490 c3         1 09S       0.205800
      2 C2           1.5210     0.0720    -0.0670 c3         1 09S       0.154800
      3 N1           2.2020     0.0460     1.2070 n7         1 09S      -0.829200
      4 C3           2.4190     1.3400     1.8180 c3         1 09S       0.170800
      5 C4           1.1420     2.0200     2.3010 c3         1 09S      -0.113400
      6 C5           0.1250     2.2160     1.1790 c3         1 09S       0.206800
      7 N2          -0.6620     1.0690     0.7970 nh         1 09S      -0.649000
      8 C6          -4.1140    -0.0230     2.9110 ca         1 09S       0.379500
      9 N3          -3.7720    -0.6700     1.7790 nb         1 09S      -0.591000
     10 C7          -2.6550    -0.3250     1.1380 ca         1 09S       0.311200
     11 C8          -1.7650     0.7100     1.5790 ca         1 09S       0.109300
     12 C9          -2.1210     1.3760     2.7720 ca         1 09S      -0.252000
     13 C10         -3.3010     1.0180     3.4390 ca         1 09S       0.085800
     14 O1          -3.7310     1.6110     4.6010 os         1 09S      -0.310900
     15 C11         -2.9120     2.6670     5.1250 c3         1 09S       0.128400
     16 C12         -3.6160     3.1470     6.3730 c3         1 09S      -0.101100
     17 H1          -0.2840    -0.9950     0.4890 h1         1 09S       0.051700
     18 H2          -0.4240     0.0530    -1.0030 h1         1 09S       0.051700
     19 H3           1.8060     0.9710    -0.6880 h1         1 09S       0.036700
     20 H4           1.8190    -0.8460    -0.6520 h1         1 09S       0.036700
     21 H5           3.0760    -0.4380     1.1220 hn         1 09S       0.369800
     22 H7           3.0920     1.1820     2.7090 h1         1 09S       0.028700
     23 H8           2.9490     2.0520     1.1150 h1         1 09S       0.028700
     24 H9           1.4230     3.0280     2.7040 hc         1 09S       0.055700
     25 H10          0.6910     1.4290     3.1410 hc         1 09S       0.055700
     26 H11          0.6670     2.5670     0.2530 h1         1 09S       0.053700
     27 H12         -0.5870     3.0400     1.4760 h1         1 09S       0.053700
     28 H13         -2.4570    -0.8920     0.2100 h4         1 09S       0.029100
     29 H14         -1.4770     2.1640     3.1850 ha         1 09S       0.145000
     30 H15         -2.8300     3.4870     4.3640 h1         1 09S       0.038700
     31 H16         -1.8930     2.2640     5.3620 h1         1 09S       0.038700
     32 H17         -3.0220     3.9730     6.8310 hc         1 09S       0.052033
     33 H18         -4.6380     3.5210     6.1260 hc         1 09S       0.052033
     34 H19         -3.7160     2.3130     7.1090 hc         1 09S       0.052033
     35 Br1         -5.7160    -0.5770     3.7410 br         1 09S      -0.138200
@<TRIPOS>BOND
     1     1     2 1   
     2     1     7 1   
     3     1    17 1   
     4     1    18 1   
     5     2     3 1   
     6     2    19 1   
     7     2    20 1   
     8     3     4 1   
     9     3    21 1   
    10     4     5 1   
    11     4    22 1   
    12     4    23 1   
    13     5     6 1   
    14     5    24 1   
    15     5    25 1   
    16     6     7 1   
    17     6    26 1   
    18     6    27 1   
    19     7    11 1   
    20     8     9 ar  
    21     8    13 ar  
    22     8    35 1   
    23     9    10 ar  
    24    10    11 ar  
    25    10    28 1   
    26    11    12 ar  
    27    12    13 ar  
    28    12    29 1   
    29    13    14 1   
    30    14    15 1   
    31    15    16 1   
    32    15    30 1   
    33    15    31 1   
    34    16    32 1   
    35    16    33 1   
    36    16    34 1   
@<TRIPOS>SUBSTRUCTURE
     1 09S         1 TEMP              0 ****  ****    0 ROOT
