@<TRIPOS>MOLECULE
molecule
   35    36     1     0     0
SMALL
bcc


@<TRIPOS>ATOM
      1 C1           0.0000     0.0000     0.0000 c3         1 09S       0.170800
      2 C2           1.5080     0.0000     0.0000 c3         1 09S       0.155800
      3 N1           2.0590     0.0000     1.3700 n7         1 09S      -0.826200
      4 C3           1.3360     0.8910     2.3060 c3         1 09S       0.151800
      5 C4           0.9670     2.2150     1.6880 c3         1 09S      -0.119400
      6 C5          -0.4560     2.1120     1.0940 c3         1 09S       0.166800
      7 N2          -0.4580     1.4000    -0.1130 nh         1 09S      -0.608000
      8 C6          -4.1800     1.6470    -1.8710 ca         1 09S       0.421500
      9 N3          -3.9580     2.1640    -0.6790 nb         1 09S      -0.611000
     10 C7          -2.7760     2.0950    -0.1000 ca         1 09S       0.326200
     11 C8          -1.7090     1.4680    -0.7320 ca         1 09S       0.036300
     12 C9          -1.9030     0.9100    -1.9920 ca         1 09S      -0.220000
     13 C10         -3.1660     0.9990    -2.5660 ca         1 09S       0.073800
     14 O1          -3.4040     0.4690    -3.7940 os         1 09S      -0.307900
     15 C11         -2.3060    -0.1710    -4.4480 c3         1 09S       0.132400
     16 C12         -2.7620    -0.7020    -5.8090 c3         1 09S      -0.092100
     17 H1          -0.3650    -0.4300     0.9250 h1         1 09S       0.057700
     18 H2          -0.3650    -0.5720    -0.8450 h1         1 09S       0.057700
     19 H3           1.8590     0.8830    -0.5200 h1         1 09S       0.045700
     20 H4           1.8590    -0.8840    -0.5190 h1         1 09S       0.045700
     21 H5           3.0250     0.2600     1.3410 hn         1 09S       0.356800
     22 H7           1.9660     1.0740     3.1680 h1         1 09S       0.052200
     23 H8           0.4300     0.3930     2.6290 h1         1 09S       0.052200
     24 H9           0.9860     2.9870     2.4470 hc         1 09S       0.057700
     25 H10          1.6710     2.4550     0.9000 hc         1 09S       0.057700
     26 H11         -1.0980     1.6050     1.8030 h1         1 09S       0.042200
     27 H12         -0.8360     3.1100     0.9140 h1         1 09S       0.042200
     28 H13         -2.6340     2.5330     0.8810 h4         1 09S       0.035100
     29 H14         -1.0930     0.4110    -2.5090 ha         1 09S       0.154000
     30 H15         -1.9530    -0.9940    -3.8390 h1         1 09S       0.035700
     31 H16         -1.5040     0.5430    -4.5900 h1         1 09S       0.035700
     32 H17         -3.5640    -1.4170    -5.6680 hc         1 09S       0.050700
     33 H18         -1.9290    -1.1880    -6.3040 hc         1 09S       0.050700
     34 H19         -3.1150     0.1210    -6.4190 hc         1 09S       0.050700
     35 Br1         -5.9000     1.7820    -2.6420 br         1 09S      -0.134200
@<TRIPOS>BOND
     1     4     3 1
     2     4     5 1
     3     3     2 1
     4     5     6 1
     5     2     1 1
     6    16    15 1
     7    15    14 1
     8     6     7 1
     9     1     7 1
    10     7    11 1
    11    12    11 ar
    12    12    13 ar
    13    14    13 1
    14    11    10 ar
    15    13     8 ar
    16    10     9 ar
    17     8     9 ar
    18     8    35 1
    19     1    17 1
    20     1    18 1
    21     2    19 1
    22     2    20 1
    23     3    21 1
    24     4    22 1
    25     4    23 1
    26     5    24 1
    27     5    25 1
    28     6    26 1
    29     6    27 1
    30    10    28 1
    31    12    29 1
    32    15    30 1
    33    15    31 1
    34    16    32 1
    35    16    33 1
    36    16    34 1
@<TRIPOS>SUBSTRUCTURE
     1 09S         1 TEMP              0 ****  ****    0 ROOT
