@<TRIPOS>MOLECULE
molecule
   34    36     1     0     0
SMALL
bcc


@<TRIPOS>ATOM
      1 C4           0.0000     0.0000     0.0000 ca         1 09T      -0.102000
      2 C5           1.3820     0.0000     0.0000 ca         1 09T      -0.112300
      3 C6           2.0740     0.0000     1.1980 ca         1 09T      -0.093000
      4 C7           1.3830     0.0010     2.3950 ca         1 09T       0.030400
      5 N12          2.1230     3.2940    -2.7410 nc         1 09T      -0.598100
      6 C13          3.2500     3.4100    -1.9930 ca         1 09T       0.090400
      7 C15          5.2330     4.2510    -0.9530 ca         1 09T      -0.099300
      8 C17          5.4130     3.0390    -0.3010 ca         1 09T      -0.063300
      9 C20          3.4310     2.1820    -1.3330 ca         1 09T      -0.090200
     10 Cl8          2.2510     0.0020     3.8990 cl         1 09T      -0.080400
     11 C2          -0.0020     0.0020     2.3950 ca         1 09T       0.039400
     12 Cl1         -0.8710     0.0040     3.8980 cl         1 09T      -0.079400
     13 C3          -0.6920     0.0010     1.1970 ca         1 09T      -0.112000
     14 C9           2.1360    -0.0020    -1.3040 c3         1 09T       0.101600
     15 N10          2.3800     1.3780    -1.7290 na         1 09T      -0.159300
     16 C11          1.6150     2.1060    -2.5870 cd         1 09T       0.426700
     17 C19          4.5170     2.0060    -0.4880 ca         1 09T      -0.129000
     18 C16          6.2220     5.3670    -0.7370 c3         1 09T      -0.041800
     19 C14          4.1690     4.4420    -1.7890 ca         1 09T      -0.064000
     20 H1          -0.5410    -0.0000    -0.9380 ha         1 09T       0.139000
     21 H2           3.1580    -0.0000     1.1970 ha         1 09T       0.152000
     22 H3          -1.7750     0.0020     1.1950 ha         1 09T       0.154000
     23 H4           1.5510    -0.5140    -2.0590 h1         1 09T       0.069700
     24 H5           3.0820    -0.5130    -1.1740 h1         1 09T       0.069700
     25 H6           0.7140     1.7490    -3.0710 h5         1 09T       0.070800
     26 H7           4.6620     1.0620     0.0230 ha         1 09T       0.123000
     27 H8           6.5430     3.5700     1.4230 hc         1 09T       0.043700
     28 H9           7.5100     2.9950     0.0580 hc         1 09T       0.043700
     29 H10          6.5740     1.8470     1.0250 hc         1 09T       0.043700
     30 H11          5.9260     6.2300    -1.3200 hc         1 09T       0.042367
     31 H12          7.2070     5.0410    -1.0490 hc         1 09T       0.042367
     32 H13          6.2450     5.6310     0.3130 hc         1 09T       0.042367
     33 H14          4.0390     5.3920    -2.2930 ha         1 09T       0.144000
     34 C18          6.5930     2.8490     0.6150 c3         1 09T      -0.043800
@<TRIPOS>BOND
     1     5     6 1
     2     5    16 2
     3    19     6 ar
     4    19     7 ar
     5     6     9 ar
     6    18     7 1
     7    16    15 1
     8     7     8 ar
     9     9    15 1
    10     9    17 ar
    11    15    14 1
    12     8    17 ar
    13     8    34 1
    14    14     2 1
    15     1     2 ar
    16     1    13 ar
    17     2     3 ar
    18    13    11 ar
    19     3     4 ar
    20    11     4 ar
    21    11    12 1
    22     4    10 1
    23     1    20 1
    24     3    21 1
    25    13    22 1
    26    14    23 1
    27    14    24 1
    28    16    25 1
    29    17    26 1
    30    34    27 1
    31    34    28 1
    32    34    29 1
    33    18    30 1
    34    18    31 1
    35    18    32 1
    36    19    33 1
@<TRIPOS>SUBSTRUCTURE
     1 09T         1 TEMP              0 ****  ****    0 ROOT
