@<TRIPOS>MOLECULE
09T
   34    36     1     0     0
SMALL
bcc


@<TRIPOS>ATOM
      1 C4           0.0000     0.0000     0.0000 ca         1 09T      -0.072000
      2 C5           1.3820     0.0000     0.0000 ca         1 09T      -0.125300
      3 C6           2.0740     0.0000     1.1980 ca         1 09T      -0.070000
      4 C7           1.3830     0.0010     2.3950 ca         1 09T      -0.039600
      5 N12          2.1230     3.2940    -2.7410 nc         1 09T      -0.517100
      6 C13          3.2500     3.4100    -1.9930 ca         1 09T       0.062400
      7 C15          5.2330     4.2510    -0.9530 ca         1 09T      -0.106300
      8 C17          5.4130     3.0390    -0.3010 ca         1 09T      -0.071300
      9 C20          3.4310     2.1820    -1.3330 ca         1 09T      -0.254200
     10 Cl8          2.2510     0.0020     3.8990 cl         1 09T       0.004600
     11 C2          -0.0020     0.0020     2.3950 ca         1 09T      -0.031600
     12 Cl1         -0.8710     0.0040     3.8980 cl         1 09T       0.004600
     13 C3          -0.6920     0.0010     1.1970 ca         1 09T      -0.086000
     14 C9           2.1360    -0.0020    -1.3040 c3         1 09T       0.034600
     15 N10          2.3800     1.3780    -1.7290 na         1 09T       0.293700
     16 C11          1.6150     2.1060    -2.5870 cd         1 09T       0.256700
     17 C19          4.5170     2.0060    -0.4880 ca         1 09T      -0.095000
     18 C16          6.2220     5.3670    -0.7370 c3         1 09T       0.065200
     19 C14          4.1690     4.4420    -1.7890 ca         1 09T      -0.034000
     20 H1          -0.5410    -0.0000    -0.9380 ha         1 09T       0.110000
     21 H2           3.1580    -0.0000     1.1970 ha         1 09T       0.123000
     22 H3          -1.7750     0.0020     1.1950 ha         1 09T       0.120000
     23 H4           3.0820    -0.5130    -1.1740 h1         1 09T       0.037700
     24 H5           1.5510    -0.5140    -2.0590 h1         1 09T       0.037700
     25 H6           0.7140     1.7490    -3.0710 h5         1 09T       0.024800
     26 H7           4.6620     1.0620     0.0230 ha         1 09T       0.103000
     27 H8           6.5750     1.8460     1.0230 hc         1 09T       0.008367
     28 H9           6.5420     3.5690     1.4240 hc         1 09T       0.008367
     29 H10          7.5100     2.9970     0.0580 hc         1 09T       0.008367
     30 H11          6.2460     5.6310     0.3130 hc         1 09T       0.007367
     31 H12          5.9260     6.2300    -1.3200 hc         1 09T       0.007367
     32 H13          7.2070     5.0420    -1.0490 hc         1 09T       0.007367
     33 H14          4.0390     5.3920    -2.2930 ha         1 09T       0.114000
     34 C18          6.5930     2.8490     0.6150 c3         1 09T       0.062200
@<TRIPOS>BOND
     1     1     2 ar  
     2     1    13 ar  
     3     1    20 1   
     4     2     3 ar  
     5     2    14 1   
     6     3     4 ar  
     7     3    21 1   
     8     4    10 1   
     9     4    11 ar  
    10     5     6 1   
    11     5    16 2   
    12     6     9 ar  
    13     6    19 ar  
    14     7     8 ar  
    15     7    18 1   
    16     7    19 ar  
    17     8    17 ar  
    18     8    34 1   
    19     9    15 1   
    20     9    17 ar  
    21    11    12 1   
    22    11    13 ar  
    23    13    22 1   
    24    14    15 1   
    25    14    23 1   
    26    14    24 1   
    27    15    16 1   
    28    16    25 1   
    29    17    26 1   
    30    18    30 1   
    31    18    31 1   
    32    18    32 1   
    33    19    33 1   
    34    27    34 1   
    35    28    34 1   
    36    29    34 1   
@<TRIPOS>SUBSTRUCTURE
     1 09T         1 TEMP              0 ****  ****    0 ROOT
