@<TRIPOS>MOLECULE
09T
   34    36     1     0     0
SMALL
bcc


@<TRIPOS>ATOM
      1 C4          -0.0270    -0.2010     0.0060 ca         1 09T      -0.112000
      2 C5           1.3370     0.1030     0.0060 ca         1 09T      -0.114300
      3 C6           1.9880     0.3800     1.2100 ca         1 09T      -0.100000
      4 C7           1.2780     0.3490     2.4150 ca         1 09T       0.018400
      5 N12          3.2130     3.4740    -2.1660 nc         1 09T      -0.561100
      6 C13          4.3800     2.9620    -1.5530 ca         1 09T       0.065400
      7 C15          6.6080     2.7970    -0.6660 ca         1 09T      -0.099300
      8 C17          6.3760     1.4500    -0.2910 ca         1 09T      -0.055300
      9 C20          4.1530     1.5810    -1.1650 ca         1 09T      -0.073200
     10 Cl8          2.0960     0.6890     3.8600 cl         1 09T      -0.061400
     11 C2          -0.0910     0.0390     2.4130 ca         1 09T       0.023400
     12 Cl1         -0.9830    -0.0090     3.8540 cl         1 09T      -0.063400
     13 C3          -0.7380    -0.2350     1.2030 ca         1 09T      -0.118000
     14 C9           2.1050     0.0890    -1.2880 c3         1 09T       0.096600
     15 N10          2.8460     1.2740    -1.5860 na         1 09T      -0.179300
     16 C11          2.3320     2.4680    -2.1490 cd         1 09T       0.425700
     17 C19          5.1510     0.8340    -0.5370 ca         1 09T      -0.140000
     18 C16          7.9270     3.4130    -0.3840 c3         1 09T      -0.048800
     19 C14          5.6210     3.5520    -1.2950 ca         1 09T      -0.065000
     20 H1          -0.5480    -0.4170    -0.9400 ha         1 09T       0.140000
     21 H2           3.0630     0.6270     1.2100 ha         1 09T       0.164000
     22 H3          -1.8120    -0.4770     1.1980 ha         1 09T       0.154000
     23 H4           2.8340    -0.7750    -1.2510 h1         1 09T       0.069700
     24 H5           1.3890    -0.0910    -2.1430 h1         1 09T       0.069700
     25 H6           1.3110     2.5150    -2.5460 h5         1 09T       0.067800
     26 H7           4.9790    -0.2120    -0.2480 ha         1 09T       0.134000
     27 H8           7.1310    -0.3600     0.6120 hc         1 09T       0.045033
     28 H9           8.3580     0.6330    -0.2830 hc         1 09T       0.045033
     29 H10          7.7510     1.1860     1.3320 hc         1 09T       0.045033
     30 H11          7.9650     4.4740    -0.7340 hc         1 09T       0.043367
     31 H12          8.1360     3.3960     0.7150 hc         1 09T       0.043367
     32 H13          8.7400     2.8430    -0.9010 hc         1 09T       0.043367
     33 H14          5.8070     4.5960    -1.5870 ha         1 09T       0.149000
     34 C18          7.4550     0.6830     0.3770 c3         1 09T      -0.053800
@<TRIPOS>BOND
     1     1     2 ar  
     2     1    13 ar  
     3     1    20 1   
     4     2     3 ar  
     5     2    14 1   
     6     3     4 ar  
     7     3    21 1   
     8     4    10 1   
     9     4    11 ar  
    10     5     6 1   
    11     5    16 2   
    12     6     9 ar  
    13     6    19 ar  
    14     7     8 ar  
    15     7    18 1   
    16     7    19 ar  
    17     8    17 ar  
    18     8    34 1   
    19     9    15 1   
    20     9    17 ar  
    21    11    12 1   
    22    11    13 ar  
    23    13    22 1   
    24    14    15 1   
    25    14    23 1   
    26    14    24 1   
    27    15    16 1   
    28    16    25 1   
    29    17    26 1   
    30    18    30 1   
    31    18    31 1   
    32    18    32 1   
    33    19    33 1   
    34    27    34 1   
    35    28    34 1   
    36    29    34 1   
@<TRIPOS>SUBSTRUCTURE
     1 09T         1 TEMP              0 ****  ****    0 ROOT
