@<TRIPOS>MOLECULE
09U
   16    16     1     0     0
SMALL
bcc


@<TRIPOS>ATOM
      1 C1          -0.0840     0.1720     0.1250 c3         1 09U       0.156400
      2 C2           1.4010    -0.0410     0.0910 cx         1 09U      -0.124700
      3 C3           2.1590    -0.0380     1.3910 cx         1 09U      -0.131400
      4 C4           1.9830    -1.3190     0.6320 cx         1 09U      -0.131400
      5 C5          -1.8850     0.7320    -1.3020 c3         1 09U       0.116700
      6 O1          -0.4890     0.5090    -1.2040 os         1 09U      -0.420600
      7 H1          -0.3470     1.0180     0.8170 h1         1 09U       0.028200
      8 H2          -0.6260    -0.7530     0.4570 h1         1 09U       0.028200
      9 H3           1.8730     0.4150    -0.8030 hc         1 09U       0.101700
     10 H4           3.1550     0.4380     1.4250 hc         1 09U       0.070200
     11 H5           1.6030     0.1070     2.3340 hc         1 09U       0.070200
     12 H6           2.8530    -1.7650     0.1180 hc         1 09U       0.070200
     13 H7           1.3030    -2.0910     1.0340 hc         1 09U       0.070200
     14 H8          -2.1970     1.5820    -0.6460 h1         1 09U       0.032033
     15 H9          -2.0520     0.9840    -2.3780 h1         1 09U       0.032033
     16 H10         -2.4530    -0.1900    -1.0220 h1         1 09U       0.032033
@<TRIPOS>BOND
     1     1     2 1   
     2     1     6 1   
     3     1     7 1   
     4     1     8 1   
     5     2     3 1   
     6     2     4 1   
     7     2     9 1   
     8     3     4 1   
     9     3    10 1   
    10     3    11 1   
    11     4    12 1   
    12     4    13 1   
    13     5     6 1   
    14     5    14 1   
    15     5    15 1   
    16     5    16 1   
@<TRIPOS>SUBSTRUCTURE
     1 09U         1 TEMP              0 ****  ****    0 ROOT
