@<TRIPOS>MOLECULE
molecule
   16    16     1     0     0
SMALL
bcc


@<TRIPOS>ATOM
      1 C1           0.0000     0.0000     0.0000 c3         1 09U       0.172400
      2 C2           1.5300     0.0000     0.0000 cx         1 09U      -0.130700
      3 C3           2.2370     0.0000     1.3570 cx         1 09U      -0.136400
      4 C4           2.2370    -1.2630     0.4940 cx         1 09U      -0.136400
      5 C5          -1.9010     0.1280    -1.4540 c3         1 09U       0.129700
      6 O1          -0.4760     0.1180    -1.3420 os         1 09U      -0.427600
      7 H1          -0.3610    -0.9260     0.4310 h1         1 09U       0.025700
      8 H2          -0.3610     0.8360     0.5860 h1         1 09U       0.025700
      9 H3           2.0540     0.5350    -0.7830 hc         1 09U       0.094700
     10 H4           3.1750     0.5400     1.3950 hc         1 09U       0.074200
     11 H5           1.5860    -0.0250     2.2220 hc         1 09U       0.074200
     12 H6           1.5870    -2.0610     0.8330 hc         1 09U       0.074200
     13 H7           3.1760    -1.4950     0.0060 hc         1 09U       0.074200
     14 H8          -2.2910    -0.8450    -1.1830 h1         1 09U       0.029033
     15 H9          -2.3100     0.8790    -0.7900 h1         1 09U       0.029033
     16 H10         -2.1810     0.3570    -2.4750 h1         1 09U       0.029033
@<TRIPOS>BOND
     1     4     2 1   
     2     4     3 1   
     3     2     3 1   
     4     2     1 1   
     5     1     6 1   
     6     6     5 1   
     7     1     7 1   
     8     1     8 1   
     9     2     9 1   
    10     3    10 1   
    11     3    11 1   
    12     4    12 1   
    13     4    13 1   
    14     5    14 1   
    15     5    15 1   
    16     5    16 1   
@<TRIPOS>SUBSTRUCTURE
     1 09U         1 TEMP              0 ****  ****    0 ROOT
