@<TRIPOS>MOLECULE
09U
   16    16     1     0     0
SMALL
bcc


@<TRIPOS>ATOM
      1 C1           0.0000     0.0000     0.0000 c3         1 09U       0.251400
      2 C2           1.5300     0.0000     0.0000 cx         1 09U      -0.116700
      3 C3           2.2370     0.0000     1.3570 cx         1 09U      -0.079400
      4 C4           2.2370    -1.2630     0.4940 cx         1 09U      -0.079400
      5 C5          -1.9010     0.1280    -1.4540 c3         1 09U       0.254700
      6 O1          -0.4760     0.1180    -1.3420 os         1 09U      -0.416600
      7 H1          -0.3610     0.8360     0.5860 h1         1 09U      -0.009300
      8 H2          -0.3610    -0.9260     0.4310 h1         1 09U      -0.009300
      9 H3           2.0540     0.5350    -0.7830 hc         1 09U       0.067700
     10 H4           3.1750     0.5400     1.3950 hc         1 09U       0.044200
     11 H5           1.5860    -0.0250     2.2220 hc         1 09U       0.044200
     12 H6           3.1760    -1.4950     0.0060 hc         1 09U       0.044200
     13 H7           1.5870    -2.0610     0.8330 hc         1 09U       0.044200
     14 H8          -2.1810     0.3580    -2.4750 h1         1 09U      -0.013967
     15 H9          -2.3100     0.8790    -0.7890 h1         1 09U      -0.013967
     16 H10         -2.2910    -0.8460    -1.1830 h1         1 09U      -0.013967
@<TRIPOS>BOND
     1     1     2 1   
     2     1     6 1   
     3     1     7 1   
     4     1     8 1   
     5     2     3 1   
     6     2     4 1   
     7     2     9 1   
     8     3     4 1   
     9     3    10 1   
    10     3    11 1   
    11     4    12 1   
    12     4    13 1   
    13     5     6 1   
    14     5    14 1   
    15     5    15 1   
    16     5    16 1   
@<TRIPOS>SUBSTRUCTURE
     1 09U         1 TEMP              0 ****  ****    0 ROOT
