@<TRIPOS>MOLECULE
09V
   13    13     1     0     0
SMALL
bcc


@<TRIPOS>ATOM
      1 O1          -0.0160    -0.0940     0.1910 oh         1 09V      -0.599800
      2 C1           1.3620    -0.0310    -0.1500 c3         1 09V       0.159400
      3 C2           2.1400     0.0260     1.1320 cx         1 09V      -0.125700
      4 C3           3.5860    -0.3890     1.1240 cx         1 09V      -0.131900
      5 C4           3.2250     1.0560     1.2990 cx         1 09V      -0.131900
      6 H1          -0.5020    -0.1180    -0.6410 ho         1 09V       0.399000
      7 H2           1.5560     0.8790    -0.7810 h1         1 09V       0.023200
      8 H3           1.6460    -0.9470    -0.7390 h1         1 09V       0.023200
      9 H4           1.5170    -0.2290     2.0140 hc         1 09V       0.102700
     10 H5           3.9820    -0.9550     1.9860 hc         1 09V       0.070450
     11 H6           4.0430    -0.7160     0.1730 hc         1 09V       0.070450
     12 H7           3.4260     1.7620     0.4740 hc         1 09V       0.070450
     13 H8           3.3610     1.5300     2.2870 hc         1 09V       0.070450
@<TRIPOS>BOND
     1     1     2 1   
     2     1     6 1   
     3     2     3 1   
     4     2     7 1   
     5     2     8 1   
     6     3     4 1   
     7     3     5 1   
     8     3     9 1   
     9     4     5 1   
    10     4    10 1   
    11     4    11 1   
    12     5    12 1   
    13     5    13 1   
@<TRIPOS>SUBSTRUCTURE
     1 09V         1 TEMP              0 ****  ****    0 ROOT
