@<TRIPOS>MOLECULE
09V
   13    13     1     0     0
SMALL
bcc


@<TRIPOS>ATOM
      1 O1           0.0000     0.0000     0.0000 oh         1 09V      -0.591800
      2 C1           1.4300     0.0000     0.0000 c3         1 09V       0.265400
      3 C2           1.9390     0.0000     1.4420 cx         1 09V      -0.118700
      4 C3           3.4490    -0.1180     1.6580 cx         1 09V      -0.079400
      5 C4           2.7430     1.2160     1.9090 cx         1 09V      -0.079400
      6 H1          -0.3140    -0.1430    -0.8770 ho         1 09V       0.388000
      7 H2           1.7910     0.8850    -0.5110 h1         1 09V      -0.014300
      8 H3           1.7910    -0.8850    -0.5110 h1         1 09V      -0.014300
      9 H4           1.3340    -0.4650     2.2110 hc         1 09V       0.068700
     10 H5           3.7540    -0.6600     2.5450 hc         1 09V       0.044200
     11 H6           4.0480    -0.1680     0.7560 hc         1 09V       0.044200
     12 H7           2.6160     1.4890     2.9490 hc         1 09V       0.044200
     13 H8           2.9100     1.9810     1.1600 hc         1 09V       0.044200
@<TRIPOS>BOND
     1     1     2 1   
     2     1     6 1   
     3     2     3 1   
     4     2     7 1   
     5     2     8 1   
     6     3     4 1   
     7     3     5 1   
     8     3     9 1   
     9     4     5 1   
    10     4    10 1   
    11     4    11 1   
    12     5    12 1   
    13     5    13 1   
@<TRIPOS>SUBSTRUCTURE
     1 09V         1 TEMP              0 ****  ****    0 ROOT
