@<TRIPOS>MOLECULE
molecule
   32    33     1     0     0
SMALL
bcc


@<TRIPOS>ATOM
      1 C1           0.0000     0.0000     0.0000 c3         1 09Z      -0.109100
      2 C2           1.5300     0.0000     0.0000 c3         1 09Z       0.236500
      3 C3           2.0400     0.0000     1.4430 c3         1 09Z      -0.109100
      4 N4           2.0180    -1.1960    -0.6910 nu         1 09Z      -0.878900
      5 C5           2.1510    -1.1950    -2.0600 cc         1 09Z       0.753300
      6 N6           1.8680    -0.1820    -2.8280 nd         1 09Z      -0.815000
      7 C7           2.0470    -0.3370    -4.1200 cd         1 09Z       0.772200
      8 C8           2.5220    -1.5890    -4.4660 cc         1 09Z      -0.329000
      9 S9           2.7130    -2.5180    -2.9820 ss         1 09Z      -0.226300
     10 N10          1.7860     0.6590    -5.0460 nv         1 09Z      -1.035500
     11 C11          2.8050    -2.0370    -5.7690 c          1 09Z       0.638300
     12 C12          3.4470    -3.3560    -5.9750 ca         1 09Z      -0.285900
     13 C13          4.2540    -3.9170    -4.9790 ca         1 09Z      -0.073000
     14 C14          4.8300    -5.1520    -5.2210 ca         1 09Z      -0.263300
     15 C15          4.5900    -5.7870    -6.4270 ca         1 09Z       0.436200
     16 N16          3.8240    -5.2320    -7.3470 nb         1 09Z      -0.697000
     17 C17          3.2500    -4.0630    -7.1620 ca         1 09Z       0.470200
     18 O18          2.5240    -1.3400    -6.7290 o          1 09Z      -0.540100
     19 H1          -0.3610     0.0390    -1.0210 hc         1 09Z       0.044533
     20 H1A         -0.3610    -0.9030     0.4770 hc         1 09Z       0.044533
     21 H1B         -0.3610     0.8640     0.5440 hc         1 09Z       0.044533
     22 H2           1.8910     0.8850    -0.5110 h1         1 09Z       0.084700
     23 H3           1.6990     0.8960     1.9470 hc         1 09Z       0.044533
     24 H3A          1.6600    -0.8720     1.9610 hc         1 09Z       0.044533
     25 H3B          3.1230    -0.0240     1.4430 hc         1 09Z       0.044533
     26 HN4          2.2560    -2.0140    -0.1660 hn         1 09Z       0.452800
     27 HN10         0.8450     0.9580    -5.2070 hn         1 09Z       0.447300
     28 HN1A         2.5430     1.1180    -5.5130 hn         1 09Z       0.447300
     29 H13          4.4250    -3.3980    -4.0440 ha         1 09Z       0.150000
     30 H14          5.4610    -5.6180    -4.4730 ha         1 09Z       0.139000
     31 H15          5.0410    -6.7530    -6.6200 h4         1 09Z       0.023100
     32 H17          2.6270    -3.6410    -7.9410 h4         1 09Z       0.043100
@<TRIPOS>BOND
     1     1     2 1
     2     2     3 1
     3     2     4 1
     4     4     5 1
     5     5     6 2
     6     5     9 1
     7     6     7 1
     8     7     8 2
     9     7    10 1
    10     8     9 1
    11     8    11 1
    12    11    12 1
    13    11    18 2
    14    12    13 ar
    15    12    17 ar
    16    13    14 ar
    17    14    15 ar
    18    15    16 ar
    19    16    17 ar
    20     1    19 1
    21     1    20 1
    22     1    21 1
    23     2    22 1
    24     3    23 1
    25     3    24 1
    26     3    25 1
    27     4    26 1
    28    10    27 1
    29    10    28 1
    30    13    29 1
    31    14    30 1
    32    15    31 1
    33    17    32 1
@<TRIPOS>SUBSTRUCTURE
     1 09Z         1 TEMP              0 ****  ****    0 ROOT
