@<TRIPOS>MOLECULE
09Z
   32    33     1     0     0
SMALL
bcc


@<TRIPOS>ATOM
      1 C1           0.3240     0.4430    -0.0960 c3         1 09Z      -0.114100
      2 C2           1.7560    -0.0590     0.0980 c3         1 09Z       0.198500
      3 C3           1.9490    -0.4480     1.5650 c3         1 09Z      -0.114100
      4 N4           2.0580    -1.1300    -0.8430 nu         1 09Z      -0.813900
      5 C5           3.3830    -1.3950    -1.1470 cc         1 09Z       0.696300
      6 N6           3.8330    -2.6120    -1.5310 nd         1 09Z      -0.775000
      7 C7           5.1890    -2.5100    -1.9050 cd         1 09Z       0.733200
      8 C8           5.7440    -1.2030    -1.7770 cc         1 09Z      -0.428000
      9 S9           4.5740    -0.1290    -1.1910 ss         1 09Z      -0.136300
     10 N10          5.8900    -3.6040    -2.3140 nv         1 09Z      -0.939500
     11 C11          7.0840    -0.8330    -2.1400 c          1 09Z       0.649300
     12 C12          7.4770     0.5830    -1.9380 ca         1 09Z      -0.268900
     13 C13          7.1030     1.3230    -0.8100 ca         1 09Z      -0.071000
     14 C14          7.5290     2.6470    -0.6990 ca         1 09Z      -0.255300
     15 C15          8.3200     3.1880    -1.7280 ca         1 09Z       0.409200
     16 N16          8.6990     2.4910    -2.8180 nb         1 09Z      -0.669000
     17 C17          8.2890     1.2140    -2.9090 ca         1 09Z       0.442200
     18 O18          7.9020    -1.6320    -2.6360 o          1 09Z      -0.593100
     19 H1           0.1550     1.3090     0.5880 hc         1 09Z       0.048033
     20 H1A          0.1570     0.7780    -1.1480 hc         1 09Z       0.048033
     21 H1B         -0.4170    -0.3550     0.1480 hc         1 09Z       0.048033
     22 H2           2.4610     0.7980    -0.1350 h1         1 09Z       0.064700
     23 H3           1.2450    -1.2640     1.8560 hc         1 09Z       0.048033
     24 H3A          1.7460     0.4410     2.2090 hc         1 09Z       0.048033
     25 H3B          2.9930    -0.7930     1.7550 hc         1 09Z       0.048033
     26 HN4          1.4630    -1.9310    -0.7540 hn         1 09Z       0.425800
     27 HN10         6.8210    -3.4710    -2.6390 hn         1 09Z       0.457300
     28 HN1A         5.4280    -4.4650    -2.4720 hn         1 09Z       0.457300
     29 H13          6.4950     0.8640    -0.0120 ha         1 09Z       0.149000
     30 H14          7.2580     3.2560     0.1730 ha         1 09Z       0.144000
     31 H15          8.6750     4.2330    -1.6800 h4         1 09Z       0.023100
     32 H17          8.6230     0.6490    -3.8000 h4         1 09Z       0.041100
@<TRIPOS>BOND
     1     1     2 1   
     2     1    19 1   
     3     1    20 1   
     4     1    21 1   
     5     2     3 1   
     6     2     4 1   
     7     2    22 1   
     8     3    23 1   
     9     3    24 1   
    10     3    25 1   
    11     4     5 1   
    12     4    26 1   
    13     5     6 2   
    14     5     9 1   
    15     6     7 1   
    16     7     8 2   
    17     7    10 1   
    18     8     9 1   
    19     8    11 1   
    20    10    27 1   
    21    10    28 1   
    22    11    12 1   
    23    11    18 2   
    24    12    13 ar  
    25    12    17 ar  
    26    13    14 ar  
    27    13    29 1   
    28    14    15 ar  
    29    14    30 1   
    30    15    16 ar  
    31    15    31 1   
    32    16    17 ar  
    33    17    32 1   
@<TRIPOS>SUBSTRUCTURE
     1 09Z         1 TEMP              0 ****  ****    0 ROOT
