@<TRIPOS>MOLECULE
molecule
   42    43     1     0     0
SMALL
bcc


@<TRIPOS>ATOM
      1 OG           0.0000     0.0000     0.0000 o          1 0A3      -0.826800
      2 S1           2.1610    -2.7460    -1.1630 ss         1 0A3      -0.428200
      3 C2           1.5120    -4.0520    -2.2490 c3         1 0A3       0.110900
      4 C3           0.1370    -3.6730    -2.7180 c2         1 0A3      -0.320400
      5 C3'         -0.7560    -4.7870    -3.2010 c3         1 0A3       0.018100
      6 C4          -0.3550    -2.4560    -2.7430 ce         1 0A3       0.138800
      7 C4'         -1.7280    -2.3150    -3.2620 c          1 0A3       0.881800
      8 O4A         -2.3020    -3.2790    -3.7310 o          1 0A3      -0.847300
      9 O4B         -2.3460    -1.1180    -3.2190 o          1 0A3      -0.847300
     10 N5           0.2730    -1.2870    -2.3360 nu         1 0A3      -0.759000
     11 C6           1.7260    -1.2490    -2.1080 c3         1 0A3       0.378600
     12 C7           2.0950    -0.0000    -1.3050 c3         1 0A3      -0.000300
     13 C8           1.3410     0.0000     0.0000 c          1 0A3       0.893600
     14 O9           1.9470     0.0000     1.0460 o          1 0A3      -0.826800
     15 N10          3.5360    -0.0000    -1.0380 ns         1 0A3      -0.519900
     16 C11          4.1800     1.1630    -0.8150 c          1 0A3       0.542800
     17 O12          3.5520     2.2000    -0.7360 o          1 0A3      -0.595100
     18 C13          5.6540     1.1760    -0.6650 ce         1 0A3       0.324300
     19 N16          6.2650     2.2790    -0.3350 n2         1 0A3      -0.454200
     20 O17          5.5350     3.4870    -0.2240 os         1 0A3      -0.130300
     21 C18          6.3310     4.6160     0.1440 c3         1 0A3       0.134700
     22 C14          6.4310    -0.0610    -0.8890 cc         1 0A3       0.365000
     23 C15          7.7580    -0.1330    -0.6600 cd         1 0A3      -0.134400
     24 S16          8.2970    -1.7650    -1.0480 ss         1 0A3      -0.385300
     25 C17          6.6520    -2.2080    -1.4920 cd         1 0A3       0.757300
     26 N18          6.2560    -3.4560    -1.9400 nv         1 0A3      -1.015500
     27 N19          5.8700    -1.1890    -1.3280 nc         1 0A3      -0.652000
     28 H2C1         1.4610    -4.9850    -1.7000 h1         1 0A3       0.028700
     29 H2C2         2.1660    -4.1660    -3.1060 h1         1 0A3       0.028700
     30 H6           2.2460    -1.2510    -3.0580 h2         1 0A3       0.022700
     31 H3'1        -0.2410    -5.7340    -3.0960 hc         1 0A3       0.014700
     32 H3'2        -1.6640    -4.8030    -2.6110 hc         1 0A3       0.014700
     33 H3'3        -1.0050    -4.6240    -4.2430 hc         1 0A3       0.014700
     34 H5          -0.2700    -0.4580    -2.1960 hn         1 0A3       0.497800
     35 H7           1.8340     0.8840    -1.8740 h1         1 0A3       0.076700
     36 H10          4.0340    -0.8660    -0.9840 hn         1 0A3       0.342500
     37 H181         5.7070     5.5010     0.1800 h1         1 0A3       0.025700
     38 H182         7.1170     4.7570    -0.5870 h1         1 0A3       0.025700
     39 H183         6.7710     4.4440     1.1190 h1         1 0A3       0.025700
     40 H15          8.3840     0.6740    -0.3000 h4         1 0A3       0.185000
     41 HA1          6.1640    -3.6290    -2.9220 hn         1 0A3       0.446800
     42 HB2          6.1080    -4.1990    -1.2860 hn         1 0A3       0.446800
@<TRIPOS>BOND
     1     1    13 1
     2     2     3 1
     3     2    11 1
     4     3     4 1
     5     3    28 1
     6     3    29 1
     7     4     5 1
     8     4     6 2
     9     5    31 1
    10     5    32 1
    11     5    33 1
    12     6     7 1
    13     6    10 1
    14     7     8 1
    15     7     9 1
    16    10    11 1
    17    10    34 1
    18    11    12 1
    19    11    30 1
    20    12    13 1
    21    12    15 1
    22    12    35 1
    23    13    14 1
    24    15    16 1
    25    15    36 1
    26    16    17 2
    27    16    18 1
    28    18    19 2
    29    18    22 1
    30    19    20 1
    31    20    21 1
    32    21    37 1
    33    21    38 1
    34    21    39 1
    35    22    23 2
    36    22    27 1
    37    23    24 1
    38    23    40 1
    39    24    25 1
    40    25    26 1
    41    25    27 2
    42    26    41 1
    43    26    42 1
@<TRIPOS>SUBSTRUCTURE
     1 0A3         1 TEMP              0 ****  ****    0 ROOT
