@<TRIPOS>MOLECULE
0A3
   42    43     1     0     0
SMALL
bcc


@<TRIPOS>ATOM
      1 OG           0.0000     0.0000     0.0000 o          1 0A3      -0.874300
      2 S1           2.1610    -2.7460    -1.1630 ss         1 0A3      -0.496200
      3 C2           1.5120    -4.0520    -2.2490 c3         1 0A3       0.201900
      4 C3           0.1370    -3.6730    -2.7180 c2         1 0A3      -0.345400
      5 C3'         -0.7560    -4.7870    -3.2010 c3         1 0A3       0.084100
      6 C4          -0.3550    -2.4560    -2.7430 ce         1 0A3      -0.011200
      7 C4'         -1.7280    -2.3150    -3.2620 c          1 0A3       0.978800
      8 O4A         -2.3020    -3.2790    -3.7310 o          1 0A3      -0.894800
      9 O4B         -2.3460    -1.1180    -3.2190 o          1 0A3      -0.894800
     10 N5           0.2730    -1.2870    -2.3360 nu         1 0A3      -0.352000
     11 C6           1.7260    -1.2490    -2.1080 c3         1 0A3       0.293600
     12 C7           2.0950    -0.0000    -1.3050 c3         1 0A3      -0.099300
     13 C8           1.3410     0.0000     0.0000 c          1 0A3       0.979600
     14 O9           1.9470     0.0000     1.0460 o          1 0A3      -0.874300
     15 N10          3.5360    -0.0000    -1.0380 ns         1 0A3      -0.128900
     16 C11          4.1800     1.1630    -0.8150 c          1 0A3       0.456800
     17 O12          3.5520     2.2000    -0.7360 o          1 0A3      -0.652100
     18 C13          5.6540     1.1760    -0.6650 ce         1 0A3       0.287300
     19 N16          6.2650     2.2790    -0.3350 n2         1 0A3      -0.406200
     20 O17          5.5350     3.4870    -0.2240 os         1 0A3      -0.115300
     21 C18          6.3310     4.6160     0.1440 c3         1 0A3       0.249700
     22 C14          6.4310    -0.0610    -0.8890 cc         1 0A3       0.337000
     23 C15          7.7580    -0.1330    -0.6600 cd         1 0A3      -0.105400
     24 S16          8.2970    -1.7650    -1.0480 ss         1 0A3      -0.448300
     25 C17          6.6520    -2.2080    -1.4920 cd         1 0A3       0.577300
     26 N18          6.2560    -3.4560    -1.9400 nv         1 0A3      -0.509500
     27 N19          5.8700    -1.1890    -1.3280 nc         1 0A3      -0.556000
     28 H2C1         1.4610    -4.9850    -1.7000 h1         1 0A3       0.009700
     29 H2C2         2.1660    -4.1660    -3.1060 h1         1 0A3       0.009700
     30 H6           2.2460    -1.2510    -3.0580 h2         1 0A3       0.006700
     31 H3'1        -1.6680    -4.7960    -2.6170 hc         1 0A3      -0.003300
     32 H3'2        -0.2440    -5.7350    -3.0870 hc         1 0A3      -0.003300
     33 H3'3        -0.9970    -4.6290    -4.2450 hc         1 0A3      -0.003300
     34 H5          -0.2700    -0.4580    -2.1960 hn         1 0A3       0.365800
     35 H7           1.8340     0.8840    -1.8740 h1         1 0A3       0.057700
     36 H10          4.0310    -0.8670    -0.9660 hn         1 0A3       0.214500
     37 H181         7.0970     4.7770    -0.6040 h1         1 0A3      -0.016967
     38 H182         5.7010     5.4950     0.2120 h1         1 0A3      -0.016967
     39 H183         6.7970     4.4310     1.1040 h1         1 0A3      -0.016967
     40 H15          8.3840     0.6740    -0.3000 h4         1 0A3       0.165000
     41 HA1          5.7310    -3.5400    -2.7880 hn         1 0A3       0.275300
     42 HB2          6.4820    -4.2740    -1.4090 hn         1 0A3       0.275300
@<TRIPOS>BOND
     1     1    13 1   
     2     2     3 1   
     3     2    11 1   
     4     3     4 1   
     5     3    28 1   
     6     3    29 1   
     7     4     5 1   
     8     4     6 2   
     9     5    31 1   
    10     5    32 1   
    11     5    33 1   
    12     6     7 1   
    13     6    10 1   
    14     7     8 1   
    15     7     9 1   
    16    10    11 1   
    17    10    34 1   
    18    11    12 1   
    19    11    30 1   
    20    12    13 1   
    21    12    15 1   
    22    12    35 1   
    23    13    14 1   
    24    15    16 1   
    25    15    36 1   
    26    16    17 2   
    27    16    18 1   
    28    18    19 2   
    29    18    22 1   
    30    19    20 1   
    31    20    21 1   
    32    21    37 1   
    33    21    38 1   
    34    21    39 1   
    35    22    23 2   
    36    22    27 1   
    37    23    24 1   
    38    23    40 1   
    39    24    25 1   
    40    25    26 1   
    41    25    27 2   
    42    26    41 1   
    43    26    42 1   
@<TRIPOS>SUBSTRUCTURE
     1 0A3         1 TEMP              0 ****  ****    0 ROOT
