@<TRIPOS>MOLECULE
0A4
   36    37     1     0     0
SMALL
bcc


@<TRIPOS>ATOM
      1 OG          -0.1760     0.3330    -0.6640 o          1 0A4      -0.776300
      2 S1           1.5450    -2.5730    -2.8660 ss         1 0A4      -0.438200
      3 C2           2.0010    -4.2830    -2.7210 c3         1 0A4       0.053900
      4 C3           1.9350    -4.8030    -1.3360 ce         1 0A4      -0.237800
      5 C3'          1.3870    -5.9830    -1.0270 c2         1 0A4      -0.159000
      6 C4           2.5440    -3.9410    -0.2980 ce         1 0A4       0.452600
      7 C4'          3.4750    -4.6740     0.7150 c          1 0A4       0.853300
      8 O4A          2.9360    -5.4950     1.4930 o          1 0A4      -0.804800
      9 O4B          4.7010    -4.3970     0.6370 o          1 0A4      -0.804800
     10 N5           2.3930    -2.6630    -0.2240 n2         1 0A4      -0.658900
     11 C6           1.5930    -1.9260    -1.1510 c3         1 0A4       0.246600
     12 C7           2.0220    -0.4530    -1.3120 c3         1 0A4      -0.023500
     13 C8           1.0430     0.5120    -0.4930 c          1 0A4       0.934600
     14 O9           1.6160     1.3880     0.2160 o          1 0A4      -0.776300
     15 N10          3.4330    -0.1840    -0.8850 ny         1 0A4      -0.652800
     16 C11          4.3750     0.2730    -1.9300 c          1 0A4       0.546100
     17 O12          3.9580     0.7800    -2.9660 o          1 0A4      -0.453100
     18 C13          5.8450     0.1040    -1.5920 c3         1 0A4      -0.063100
     19 C14          6.2930    -1.2740    -1.8190 cc         1 0A4      -0.180400
     20 C15          6.0300    -2.3770    -1.0310 cd         1 0A4      -0.101000
     21 C16          6.6510    -3.5610    -1.5470 cd         1 0A4      -0.118000
     22 C17          7.3640    -3.3030    -2.6940 cc         1 0A4      -0.159100
     23 S19          7.2750    -1.6900    -3.1320 ss         1 0A4      -0.044800
     24 H2C1         3.0450    -4.3950    -3.1110 h1         1 0A4       0.066700
     25 H2C2         1.3160    -4.8480    -3.4010 h1         1 0A4       0.066700
     26 H6           0.5120    -1.9060    -0.8150 h2         1 0A4       0.139700
     27 H3'1         0.9260    -6.6310    -1.7830 ha         1 0A4       0.129500
     28 H3'2         1.3900    -6.3550     0.0110 ha         1 0A4       0.129500
     29 H7           1.9110    -0.1590    -2.3970 hx         1 0A4       0.114700
     30 H10          3.8280    -1.0170    -0.4220 hn         1 0A4       0.485800
     31 H131         6.0250     0.4020    -0.5210 hc         1 0A4       0.085200
     32 H132         6.4150     0.8210    -2.2460 hc         1 0A4       0.085200
     33 H151         5.4190    -2.4360    -0.1160 ha         1 0A4       0.210000
     34 H16          6.5140    -4.5270    -1.0460 ha         1 0A4       0.201000
     35 H17          7.9230    -4.0340    -3.2740 h4         1 0A4       0.165000
     36 H102         3.3490     0.5850    -0.1670 hn         1 0A4       0.485800
@<TRIPOS>BOND
     1     1    13 1   
     2     2     3 1   
     3     2    11 1   
     4     3     4 1   
     5     3    24 1   
     6     3    25 1   
     7     4     5 2   
     8     4     6 1   
     9     5    27 1   
    10     5    28 1   
    11     6     7 1   
    12     6    10 2   
    13     7     8 1   
    14     7     9 1   
    15    10    11 1   
    16    11    12 1   
    17    11    26 1   
    18    12    13 1   
    19    12    15 1   
    20    12    29 1   
    21    13    14 1   
    22    15    16 1   
    23    15    30 1   
    24    15    36 1   
    25    16    17 2   
    26    16    18 1   
    27    18    19 1   
    28    18    31 1   
    29    18    32 1   
    30    19    20 2   
    31    19    23 1   
    32    20    21 1   
    33    20    33 1   
    34    21    22 2   
    35    21    34 1   
    36    22    23 1   
    37    22    35 1   
@<TRIPOS>SUBSTRUCTURE
     1 0A4         1 TEMP              0 ****  ****    0 ROOT
