@<TRIPOS>MOLECULE
0A4
   35    36     1     0     0
SMALL
bcc


@<TRIPOS>ATOM
      1 OG           0.0000     0.0000     0.0000 o          1 0A4      -0.885800
      2 S1          -0.0310    -1.1730    -2.5640 ss         1 0A4      -0.374200
      3 C2          -0.1420    -2.5090    -3.7980 c3         1 0A4       0.085900
      4 C3           0.8920    -2.2050    -4.8640 ce         1 0A4      -0.220800
      5 C3'          0.6000    -2.3690    -6.1500 c2         1 0A4      -0.194000
      6 C4           2.2210    -1.7270    -4.4610 ce         1 0A4       0.395600
      7 C4'          3.2770    -1.7170    -5.5070 c          1 0A4       0.895300
      8 O4A          4.4770    -1.1670    -5.2460 o          1 0A4      -0.881300
      9 O4B          3.0580    -2.2060    -6.5960 o          1 0A4      -0.881300
     10 N5           2.5560    -1.3200    -3.3000 n2         1 0A4      -0.496900
     11 C6           1.7260    -1.2500    -2.1070 c3         1 0A4       0.269600
     12 C7           2.0950    -0.0010    -1.3050 c3         1 0A4      -0.080300
     13 C8           1.3430     0.0000     0.0000 c          1 0A4       0.971600
     14 O9           1.9470     0.0000     1.0460 o          1 0A4      -0.885800
     15 N10          3.5360    -0.0010    -1.0380 ns         1 0A4      -0.083900
     16 C11          4.1810     1.1620    -0.8150 c          1 0A4       0.568100
     17 O12          3.5680     2.2080    -0.8360 o          1 0A4      -0.673100
     18 C13          5.6620     1.1610    -0.5400 c3         1 0A4      -0.023100
     19 C14          6.1340     2.5770    -0.3270 cc         1 0A4       0.115600
     20 C15          6.1770     3.2040     0.8490 cd         1 0A4      -0.159000
     21 C16          6.6480     4.5050     0.8000 cd         1 0A4      -0.115000
     22 C17          6.9880     4.9330    -0.4160 cc         1 0A4      -0.048100
     23 S19          6.7200     3.6510    -1.5900 ss         1 0A4      -0.276800
     24 H2C1         0.0780    -3.4620    -3.3320 h1         1 0A4       0.028700
     25 H2C2        -1.1320    -2.5240    -4.2380 h1         1 0A4       0.028700
     26 H6           1.8980    -2.1330    -1.5030 h2         1 0A4       0.042700
     27 H3'1         1.3430    -2.1490    -6.9070 ha         1 0A4       0.113000
     28 H3'2        -0.3820    -2.7210    -6.4420 ha         1 0A4       0.113000
     29 H7           1.8340     0.8840    -1.8730 h1         1 0A4       0.075700
     30 H10          4.0370    -0.8660    -1.0000 hn         1 0A4       0.157500
     31 H131         5.8640     0.5760     0.3490 hc         1 0A4       0.033200
     32 H132         6.1860     0.7290    -1.3830 hc         1 0A4       0.033200
     33 H151         5.8650     2.7320     1.7730 ha         1 0A4       0.126000
     34 H16          6.7320     5.1280     1.6820 ha         1 0A4       0.098000
     35 H17          7.3760     5.9180    -0.6450 h4         1 0A4       0.129000
@<TRIPOS>BOND
     1     1    13 1   
     2     2     3 1   
     3     2    11 1   
     4     3     4 1   
     5     3    24 1   
     6     3    25 1   
     7     4     5 2   
     8     4     6 1   
     9     5    27 1   
    10     5    28 1   
    11     6     7 1   
    12     6    10 2   
    13     7     8 1   
    14     7     9 1   
    15    10    11 1   
    16    11    12 1   
    17    11    26 1   
    18    12    13 1   
    19    12    15 1   
    20    12    29 1   
    21    13    14 1   
    22    15    16 1   
    23    15    30 1   
    24    16    17 2   
    25    16    18 1   
    26    18    19 1   
    27    18    31 1   
    28    18    32 1   
    29    19    20 2   
    30    19    23 1   
    31    20    21 1   
    32    20    33 1   
    33    21    22 2   
    34    21    34 1   
    35    22    23 1   
    36    22    35 1   
@<TRIPOS>SUBSTRUCTURE
     1 0A4         1 TEMP              0 ****  ****    0 ROOT
