@<TRIPOS>MOLECULE
molecule
   13    12     1     0     0
SMALL
bcc


@<TRIPOS>ATOM
      1 C1           0.0000     0.0000     0.0000 c3         1 0A5       0.018000
      2 C2           3.5460    -0.0000    -1.4430 c          1 0A5       0.892600
      3 O1           4.1500     0.0000    -0.3960 o          1 0A5      -0.851800
      4 C3           2.0390    -0.0000    -1.4420 c3         1 0A5      -0.185400
      5 C4           1.5300     0.0000     0.0000 c3         1 0A5      -0.067400
      6 OXT          4.2180     0.0000    -2.6050 o          1 0A5      -0.851800
      7 Br1         -0.6560     0.0000     1.8530 br         1 0A5      -0.250400
      8 H           -0.3610     0.8850    -0.5110 h1         1 0A5       0.057700
      9 HA          -0.3610    -0.8850    -0.5110 h1         1 0A5       0.057700
     10 H2           1.6780    -0.8840    -1.9530 hc         1 0A5       0.028700
     11 H2A          1.6780     0.8840    -1.9530 hc         1 0A5       0.028700
     12 H3           1.8910     0.8850     0.5110 hc         1 0A5       0.061700
     13 H3A          1.8910    -0.8850     0.5110 hc         1 0A5       0.061700
@<TRIPOS>BOND
     1     1     5 1   
     2     1     7 1   
     3     1     8 1   
     4     1     9 1   
     5     2     3 1   
     6     2     4 1   
     7     2     6 1   
     8     4     5 1   
     9     4    10 1   
    10     4    11 1   
    11     5    12 1   
    12     5    13 1   
@<TRIPOS>SUBSTRUCTURE
     1 0A5         1 TEMP              0 ****  ****    0 ROOT
