@<TRIPOS>MOLECULE
0A6
   20    19     1     0     0
SMALL
bcc


@<TRIPOS>ATOM
      1 O01          0.3080    -0.3450    -0.3760 o          1 0A6      -0.557000
      2 C02          1.5150    -0.3680    -0.1320 c          1 0A6       0.634100
      3 C03          2.2620    -0.2010     1.1830 c3         1 0A6       0.149100
      4 O04          1.8180    -1.2550     2.0170 oh         1 0A6      -0.639800
      5 C05          1.9840     1.1820     1.7480 c3         1 0A6      -0.241400
      6 C06          2.8110     1.4430     3.0210 c          1 0A6       0.913600
      7 O07          3.3370     2.5780     3.1600 o          1 0A6      -0.838300
      8 C08          1.8110    -0.6980    -2.4950 c3         1 0A6       0.139400
      9 C09          1.4910     0.6490    -3.0980 c3         1 0A6      -0.124100
     10 O10          2.3730    -0.5570    -1.1900 os         1 0A6      -0.450900
     11 OXT          2.9020     0.5040     3.8700 o          1 0A6      -0.838300
     12 H03          3.3660    -0.3310     0.9950 h1         1 0A6       0.060700
     13 H04          2.0030    -0.9760     2.9360 ho         1 0A6       0.471000
     14 H051         0.9000     1.2680     2.0130 hc         1 0A6       0.049700
     15 H052         2.2290     1.9580     0.9830 hc         1 0A6       0.049700
     16 H081         0.8950    -1.3430    -2.4500 h1         1 0A6       0.048200
     17 H082         2.6220    -1.2210    -3.0700 h1         1 0A6       0.048200
     18 H091         0.6910     1.1510    -2.5000 hc         1 0A6       0.042033
     19 H092         1.1350     0.5180    -4.1470 hc         1 0A6       0.042033
     20 H093         2.3950     1.3030    -3.0980 hc         1 0A6       0.042033
@<TRIPOS>BOND
     1     1     2 2   
     2     2     3 1   
     3     2    10 1   
     4     3     4 1   
     5     3     5 1   
     6     3    12 1   
     7     4    13 1   
     8     5     6 1   
     9     5    14 1   
    10     5    15 1   
    11     6     7 1   
    12     6    11 1   
    13     8     9 1   
    14     8    10 1   
    15     8    16 1   
    16     8    17 1   
    17     9    18 1   
    18     9    19 1   
    19     9    20 1   
@<TRIPOS>SUBSTRUCTURE
     1 0A6         1 TEMP              0 ****  ****    0 ROOT
