@<TRIPOS>MOLECULE
molecule
   20    19     1     0     0
SMALL
bcc


@<TRIPOS>ATOM
      1 O01          0.0000     0.0000     0.0000 o          1 0A6      -0.568000
      2 C02          1.2080     0.0000     0.0000 c          1 0A6       0.594100
      3 C03          1.9620     0.0000     1.3050 c3         1 0A6       0.129100
      4 O04          1.0380    -0.1160     2.3890 oh         1 0A6      -0.552800
      5 C05          2.7450     1.3070     1.4400 c3         1 0A6      -0.180400
      6 C06          3.5940     1.2570     2.6840 c          1 0A6       0.898600
      7 O07          3.5760     0.2760     3.3900 o          1 0A6      -0.848800
      8 C08          1.0870    -0.0140    -2.3800 c3         1 0A6       0.144400
      9 C09          2.0200    -0.0210    -3.5940 c3         1 0A6      -0.095100
     10 O10          1.8790    -0.0070    -1.1620 os         1 0A6      -0.431900
     11 OXT          4.3730     2.3020     3.0080 o          1 0A6      -0.848800
     12 H03          2.6490    -0.8370     1.3250 h1         1 0A6       0.066700
     13 H04          0.9180    -1.0260     2.6030 ho         1 0A6       0.391000
     14 H051         2.0530     2.1380     1.5090 hc         1 0A6       0.050700
     15 H052         3.3820     1.4380     0.5730 hc         1 0A6       0.050700
     16 H081         0.4650    -0.9000    -2.3980 h1         1 0A6       0.039700
     17 H082         0.4600     0.8690    -2.4120 h1         1 0A6       0.039700
     18 H091         1.4300    -0.0680    -4.5020 hc         1 0A6       0.040367
     19 H092         2.6730    -0.8830    -3.5420 hc         1 0A6       0.040367
     20 H093         2.6150     0.8840    -3.5970 hc         1 0A6       0.040367
@<TRIPOS>BOND
     1     1     2 2   
     2     2     3 1   
     3     2    10 1   
     4     3     4 1   
     5     3     5 1   
     6     3    12 1   
     7     4    13 1   
     8     5     6 1   
     9     5    14 1   
    10     5    15 1   
    11     6     7 1   
    12     6    11 1   
    13     8     9 1   
    14     8    10 1   
    15     8    16 1   
    16     8    17 1   
    17     9    18 1   
    18     9    19 1   
    19     9    20 1   
@<TRIPOS>SUBSTRUCTURE
     1 0A6         1 TEMP              0 ****  ****    0 ROOT
