@<TRIPOS>MOLECULE
molecule
   19    19     1     0     0
SMALL
bcc


@<TRIPOS>ATOM
      1 O01          0.0000     0.0000     0.0000 o          1 0A7      -0.873300
      2 C02         -0.2010    -1.1760    -4.1700 ca         1 0A7      -0.167000
      3 C03          0.7000    -1.1740    -3.1190 ca         1 0A7      -0.166000
      4 C04          0.9810    -0.0010    -2.4500 ca         1 0A7       0.015700
      5 C05          0.3560     1.1870    -2.8370 ca         1 0A7      -0.089600
      6 C06         -0.5500     1.1770    -3.8980 ca         1 0A7      -0.103000
      7 C07         -0.8240    -0.0030    -4.5590 ca         1 0A7      -0.200000
      8 C08          0.6530     2.4480    -2.1250 c          1 0A7       0.887200
      9 O09          1.3620     2.4360    -1.1400 o          1 0A7      -0.841800
     10 C10          1.9610    -0.0000    -1.3050 c3         1 0A7      -0.140100
     11 C11          1.2080     0.0000     0.0000 c          1 0A7       0.934600
     12 O12          1.8800     0.0000     1.1620 o          1 0A7      -0.873300
     13 OXT          0.1370     3.6100    -2.5710 o          1 0A7      -0.841800
     14 H07         -1.5280    -0.0120    -5.3820 ha         1 0A7       0.076000
     15 H101         2.5840    -0.8840    -1.3630 hc         1 0A7       0.040700
     16 H102         2.5830     0.8840    -1.3630 hc         1 0A7       0.040700
     17 H06         -1.0390     2.0950    -4.2030 ha         1 0A7       0.132000
     18 H02         -0.4190    -2.1000    -4.6910 ha         1 0A7       0.073000
     19 H03          1.1840    -2.0960    -2.8210 ha         1 0A7       0.097000
@<TRIPOS>BOND
     1     1    11 1
     2     2     3 ar
     3     2     7 ar
     4     2    18 1
     5     3     4 ar
     6     3    19 1
     7     4     5 ar
     8     4    10 1
     9     5     6 ar
    10     5     8 1
    11     6     7 ar
    12     6    17 1
    13     7    14 1
    14     8     9 1
    15     8    13 1
    16    10    11 1
    17    10    15 1
    18    10    16 1
    19    11    12 1
@<TRIPOS>SUBSTRUCTURE
     1 0A7         1 TEMP              0 ****  ****    0 ROOT
