@<TRIPOS>MOLECULE
0A7
   19    19     1     0     0
SMALL
bcc


@<TRIPOS>ATOM
      1 O01          0.4050    -0.9600    -1.4530 o          1 0A7      -0.876300
      2 C02          5.5050    -0.9360    -1.3910 ca         1 0A7      -0.176000
      3 C03          4.1620    -0.9030    -1.0260 ca         1 0A7      -0.141000
      4 C04          3.5340     0.3020    -0.6750 ca         1 0A7      -0.000300
      5 C05          4.2920     1.4890    -0.6800 ca         1 0A7      -0.118600
      6 C06          5.6380     1.4430    -1.0620 ca         1 0A7      -0.132000
      7 C07          6.2490     0.2420    -1.4160 ca         1 0A7      -0.192000
      8 C08          3.7470     2.8480    -0.2730 c          1 0A7       0.912200
      9 O09          3.8720     3.8090    -1.0910 o          1 0A7      -0.852300
     10 C10          2.0960     0.3160    -0.2960 c3         1 0A7      -0.150100
     11 C11          1.3150    -0.9760    -0.5690 c          1 0A7       0.903600
     12 O12          1.5570    -2.0180     0.1170 o          1 0A7      -0.876300
     13 OXT          3.2520     2.9960     0.8810 o          1 0A7      -0.852300
     14 H07          7.3060     0.2250    -1.7120 ha         1 0A7       0.077000
     15 H101         1.5920     1.1610    -0.8370 hc         1 0A7       0.058200
     16 H102         2.0320     0.5420     0.8030 hc         1 0A7       0.058200
     17 H06          6.2060     2.3840    -1.0890 ha         1 0A7       0.114000
     18 H02          5.9760    -1.8910    -1.6600 ha         1 0A7       0.082000
     19 H03          3.5700    -1.8350    -0.9930 ha         1 0A7       0.160000
@<TRIPOS>BOND
     1     1    11 1   
     2     2     3 ar  
     3     2     7 ar  
     4     2    18 1   
     5     3     4 ar  
     6     3    19 1   
     7     4     5 ar  
     8     4    10 1   
     9     5     6 ar  
    10     5     8 1   
    11     6     7 ar  
    12     6    17 1   
    13     7    14 1   
    14     8     9 1   
    15     8    13 1   
    16    10    11 1   
    17    10    15 1   
    18    10    16 1   
    19    11    12 1   
@<TRIPOS>SUBSTRUCTURE
     1 0A7         1 TEMP              0 ****  ****    0 ROOT
