@<TRIPOS>MOLECULE
molecule
   31    31     1     0     0
SMALL
bcc


@<TRIPOS>ATOM
      1 O6           0.0000     0.0000     0.0000 o          1 0AI      -0.826800
      2 C6           1.2080     0.0000     0.0000 c          1 0AI       0.904600
      3 O5           1.0370     0.0180     2.3910 os         1 0AI      -0.379600
      4 C1           1.6520     0.0000     3.6820 c3         1 0AI       0.307900
      5 C5           1.9610    -0.0540     1.3040 c3         1 0AI       0.029100
      6 C2           2.4220    -1.3100     3.8600 c3         1 0AI       0.106700
      7 N2           3.1020    -1.3060     5.1580 ns         1 0AI      -0.566900
      8 C7           2.4420    -1.6940     6.2660 c          1 0AI       0.653100
      9 O7           1.2840    -2.0480     6.1900 o          1 0AI      -0.617100
     10 C8           3.1410    -1.6900     7.6010 c3         1 0AI      -0.173100
     11 C3           3.4590    -1.4420     2.7400 c3         1 0AI       0.109100
     12 O3           4.1330    -2.6970     2.8550 oh         1 0AI      -0.606800
     13 C4           2.7450    -1.3670     1.3870 c3         1 0AI       0.125100
     14 O4           1.8430    -2.4690     1.2610 oh         1 0AI      -0.575800
     15 H1           0.8870     0.0740     4.4450 h2         1 0AI       0.077700
     16 H2           1.7320    -2.1430     3.8110 h1         1 0AI       0.125700
     17 H3           4.1750    -0.6320     2.8150 h1         1 0AI       0.040700
     18 HA           4.0660    -1.0440     5.2160 hn         1 0AI       0.307500
     19 H4           3.4780    -1.4000     0.5900 h1         1 0AI       0.055700
     20 HB           5.0550    -2.5740     2.7030 ho         1 0AI       0.385000
     21 H5           2.6510     0.7800     1.3630 h1         1 0AI       0.041700
     22 HC           2.1420    -3.0430     0.5760 ho         1 0AI       0.396000
     23 H8C1         2.4900    -2.1230     8.3510 hc         1 0AI       0.052367
     24 H8C2         3.3840    -0.6710     7.8780 hc         1 0AI       0.052367
     25 H8C3         4.0520    -2.2730     7.5340 hc         1 0AI       0.052367
     26 HMC1         1.0960     2.4030     3.1390 h1         1 0AI       0.029700
     27 HMC2         2.6010     3.1570     3.6820 h1         1 0AI       0.029700
     28 HMC3         1.4680     2.4920     4.8660 h1         1 0AI       0.029700
     29 O71          1.8790     0.0520    -1.1610 o          1 0AI      -0.826800
     30 O1           2.5550     1.1020     3.7950 os         1 0AI      -0.468600
     31 CM           1.8890     2.3650     3.8760 c3         1 0AI       0.129700
@<TRIPOS>BOND
     1     2     1 1
     2     4     6 1
     3     4    30 1
     4     4     3 1
     5     4    15 1
     6     5     2 1
     7     5     3 1
     8     5    21 1
     9    30    31 1
    10    31    26 1
    11    31    27 1
    12    31    28 1
    13     6    11 1
    14     6     7 1
    15     6    16 1
    16     7    18 1
    17     8    10 1
    18     8     7 1
    19     8     9 2
    20    10    23 1
    21    10    24 1
    22    10    25 1
    23    11    13 1
    24    11    12 1
    25    11    17 1
    26    12    20 1
    27    13     5 1
    28    13    14 1
    29    13    19 1
    30    14    22 1
    31     2    29 1
@<TRIPOS>SUBSTRUCTURE
     1 0AI         1 TEMP              0 ****  ****    0 ROOT
