@<TRIPOS>MOLECULE
0AI
   31    31     1     0     0
SMALL
bcc


@<TRIPOS>ATOM
      1 O6           0.0000     0.0000     0.0000 o          1 0AI      -0.882800
      2 C6           1.2080     0.0000     0.0000 c          1 0AI       0.985600
      3 O5           1.0370     0.0180     2.3910 os         1 0AI      -0.359600
      4 C1           1.6520     0.0000     3.6820 c3         1 0AI       0.357900
      5 C5           1.9610    -0.0540     1.3040 c3         1 0AI       0.056100
      6 C2           2.4220    -1.3100     3.8600 c3         1 0AI      -0.018300
      7 N2           3.1020    -1.3060     5.1580 ns         1 0AI      -0.163900
      8 C7           2.4420    -1.6940     6.2660 c          1 0AI       0.562100
      9 O7           1.2840    -2.0480     6.1900 o          1 0AI      -0.656100
     10 C8           3.1410    -1.6900     7.6010 c3         1 0AI      -0.070100
     11 C3           3.4590    -1.4420     2.7400 c3         1 0AI       0.150100
     12 O3           4.1330    -2.6970     2.8550 oh         1 0AI      -0.586800
     13 C4           2.7450    -1.3670     1.3870 c3         1 0AI       0.160100
     14 O4           1.8430    -2.4690     1.2610 oh         1 0AI      -0.556800
     15 H1           0.8870     0.0740     4.4450 h2         1 0AI       0.033700
     16 H2           1.7320    -2.1430     3.8110 h1         1 0AI       0.098700
     17 H3           4.1750    -0.6320     2.8150 h1         1 0AI       0.009700
     18 HA           4.0660    -1.0440     5.2160 hn         1 0AI       0.164500
     19 H4           3.4780    -1.4000     0.5900 h1         1 0AI       0.023700
     20 HB           5.0550    -2.5740     2.7030 ho         1 0AI       0.374000
     21 H5           2.6510     0.7800     1.3630 h1         1 0AI       0.014700
     22 HC           2.1420    -3.0430     0.5760 ho         1 0AI       0.382000
     23 H8C1         2.4900    -2.1230     8.3510 hc         1 0AI       0.015033
     24 H8C2         3.3840    -0.6710     7.8780 hc         1 0AI       0.015033
     25 H8C3         4.0520    -2.2730     7.5340 hc         1 0AI       0.015033
     26 HMC1         1.0960     2.4030     3.1390 h1         1 0AI      -0.010967
     27 HMC2         2.6010     3.1570     3.6820 h1         1 0AI      -0.010967
     28 HMC3         1.4680     2.4920     4.8660 h1         1 0AI      -0.010967
     29 O71          1.8790     0.0520    -1.1610 o          1 0AI      -0.882800
     30 O1           2.5550     1.1020     3.7950 os         1 0AI      -0.458600
     31 CM           1.8890     2.3650     3.8760 c3         1 0AI       0.251700
@<TRIPOS>BOND
     1     1     2 1   
     2     2     5 1   
     3     2    29 1   
     4     3     4 1   
     5     3     5 1   
     6     4     6 1   
     7     4    15 1   
     8     4    30 1   
     9     5    13 1   
    10     5    21 1   
    11     6     7 1   
    12     6    11 1   
    13     6    16 1   
    14     7     8 1   
    15     7    18 1   
    16     8     9 2   
    17     8    10 1   
    18    10    23 1   
    19    10    24 1   
    20    10    25 1   
    21    11    12 1   
    22    11    13 1   
    23    11    17 1   
    24    12    20 1   
    25    13    14 1   
    26    13    19 1   
    27    14    22 1   
    28    26    31 1   
    29    27    31 1   
    30    28    31 1   
    31    30    31 1   
@<TRIPOS>SUBSTRUCTURE
     1 0AI         1 TEMP              0 ****  ****    0 ROOT
