@<TRIPOS>MOLECULE
0AJ
   19    18     1     0     0
SMALL
bcc


@<TRIPOS>ATOM
      1 CA           0.3800     0.1400     0.6230 c3         1 0AJ      -0.086100
      2 CB           1.7970     0.0920     0.1270 c3         1 0AJ       0.075500
      3 SG           2.7760    -0.3320     1.5380 ss         1 0AJ      -0.285200
      4 CD           4.3440    -0.7060     0.8480 c3         1 0AJ      -0.047000
      5 S            2.3040     1.5400    -0.7520 ss         1 0AJ      -0.309200
      6 C1           2.1670     2.8740     0.4040 c3         1 0AJ      -0.012300
      7 C2           0.8720     3.6200     0.2940 c3         1 0AJ      -0.090100
      8 HAC1        -0.3110     0.4410    -0.2040 hc         1 0AJ       0.054367
      9 HAC2         0.0630    -0.8640     1.0010 hc         1 0AJ       0.054367
     10 HAC3         0.2760     0.8790     1.4560 hc         1 0AJ       0.054367
     11 HB           1.9030    -0.7020    -0.6590 h2         1 0AJ       0.101700
     12 HDC1         5.0620    -0.7350     1.7000 h1         1 0AJ       0.069367
     13 HDC2         4.6650     0.0730     0.1190 h1         1 0AJ       0.069367
     14 HDC3         4.3430    -1.6950     0.3380 h1         1 0AJ       0.069367
     15 H1C1         2.3120     2.4820     1.4430 h1         1 0AJ       0.079200
     16 H1C2         3.0260     3.5510     0.1650 h1         1 0AJ       0.079200
     17 H2C1         0.8630     4.4830     1.0050 hc         1 0AJ       0.041033
     18 H2C2         0.7280     4.0160    -0.7410 hc         1 0AJ       0.041033
     19 H2C3         0.0070     2.9550     0.5370 hc         1 0AJ       0.041033
@<TRIPOS>BOND
     1     1     2 1   
     2     1     8 1   
     3     1     9 1   
     4     1    10 1   
     5     2     3 1   
     6     2     5 1   
     7     2    11 1   
     8     3     4 1   
     9     4    12 1   
    10     4    13 1   
    11     4    14 1   
    12     5     6 1   
    13     6     7 1   
    14     6    15 1   
    15     6    16 1   
    16     7    17 1   
    17     7    18 1   
    18     7    19 1   
@<TRIPOS>SUBSTRUCTURE
     1 0AJ         1 TEMP              0 ****  ****    0 ROOT
