@<TRIPOS>MOLECULE
molecule
   19    18     1     0     0
SMALL
bcc


@<TRIPOS>ATOM
      1 CA           0.0000     0.0000     0.0000 c3         1 0AJ      -0.079100
      2 CB           1.5300     0.0000     0.0000 c3         1 0AJ       0.124500
      3 SG           2.1340     0.0000     1.7100 ss         1 0AJ      -0.361200
      4 CD           1.5110     1.5740     2.3630 c3         1 0AJ       0.005000
      5 S            2.1340     1.4810    -0.8550 ss         1 0AJ      -0.354200
      6 C1           3.9290     1.2160    -0.9100 c3         1 0AJ       0.018700
      7 C2           4.5830     2.3300    -1.7290 c3         1 0AJ      -0.079100
      8 HAC1        -0.3610    -0.6230    -0.8090 hc         1 0AJ       0.053700
      9 HAC2        -0.3610     1.0120    -0.1350 hc         1 0AJ       0.053700
     10 HAC3        -0.3610    -0.3900     0.9440 hc         1 0AJ       0.053700
     11 HB           1.8910    -0.8850    -0.5110 h2         1 0AJ       0.099700
     12 HDC1         0.4320     1.5300     2.4400 h1         1 0AJ       0.066033
     13 HDC2         1.9370     1.7520     3.3430 h1         1 0AJ       0.066033
     14 HDC3         1.7940     2.3780     1.6950 h1         1 0AJ       0.066033
     15 H1C1         4.3260     1.2270     0.0980 h1         1 0AJ       0.065200
     16 H1C2         4.1390     0.2580    -1.3710 h1         1 0AJ       0.065200
     17 H2C1         4.1760     2.3270    -2.7330 hc         1 0AJ       0.045367
     18 H2C2         4.3840     3.2870    -1.2620 hc         1 0AJ       0.045367
     19 H2C3         5.6530     2.1650    -1.7720 hc         1 0AJ       0.045367
@<TRIPOS>BOND
     1     1     2 1
     2     1     8 1
     3     1     9 1
     4     1    10 1
     5     2     3 1
     6     2     5 1
     7     2    11 1
     8     3     4 1
     9     4    12 1
    10     4    13 1
    11     4    14 1
    12     5     6 1
    13     6     7 1
    14     6    15 1
    15     6    16 1
    16     7    17 1
    17     7    18 1
    18     7    19 1
@<TRIPOS>SUBSTRUCTURE
     1 0AJ         1 TEMP              0 ****  ****    0 ROOT
