@<TRIPOS>MOLECULE
0AJ
   19    18     1     0     0
SMALL
bcc


@<TRIPOS>ATOM
      1 CA           0.0000     0.0000     0.0000 c3         1 0AJ       0.012900
      2 CB           1.5300     0.0000     0.0000 c3         1 0AJ       0.168500
      3 SG           2.1340     0.0000     1.7100 ss         1 0AJ      -0.402200
      4 CD           1.5110     1.5740     2.3630 c3         1 0AJ       0.105000
      5 S            2.1340     1.4810    -0.8550 ss         1 0AJ      -0.400200
      6 C1           3.9290     1.2160    -0.9100 c3         1 0AJ       0.086700
      7 C2           4.5830     2.3300    -1.7290 c3         1 0AJ       0.024900
      8 HAC1        -0.3610    -0.6260    -0.8070 hc         1 0AJ       0.024367
      9 HAC2        -0.3610    -0.3860     0.9460 hc         1 0AJ       0.024367
     10 HAC3        -0.3610     1.0120    -0.1390 hc         1 0AJ       0.024367
     11 HB           1.8910    -0.8850    -0.5110 h2         1 0AJ       0.083700
     12 HDC1         1.9350     1.7510     3.3440 h1         1 0AJ       0.042367
     13 HDC2         1.7950     2.3790     1.6960 h1         1 0AJ       0.042367
     14 HDC3         0.4320     1.5310     2.4390 h1         1 0AJ       0.042367
     15 H1C1         4.1390     0.2580    -1.3700 h1         1 0AJ       0.042700
     16 H1C2         4.3260     1.2270     0.0980 h1         1 0AJ       0.042700
     17 H2C1         4.3840     3.2870    -1.2620 hc         1 0AJ       0.012367
     18 H2C2         5.6530     2.1650    -1.7720 hc         1 0AJ       0.012367
     19 H2C3         4.1770     2.3270    -2.7330 hc         1 0AJ       0.012367
@<TRIPOS>BOND
     1     1     2 1   
     2     1     8 1   
     3     1     9 1   
     4     1    10 1   
     5     2     3 1   
     6     2     5 1   
     7     2    11 1   
     8     3     4 1   
     9     4    12 1   
    10     4    13 1   
    11     4    14 1   
    12     5     6 1   
    13     6     7 1   
    14     6    15 1   
    15     6    16 1   
    16     7    17 1   
    17     7    18 1   
    18     7    19 1   
@<TRIPOS>SUBSTRUCTURE
     1 0AJ         1 TEMP              0 ****  ****    0 ROOT
