@<TRIPOS>MOLECULE
0AL
   31    31     1     0     0
SMALL
bcc


@<TRIPOS>ATOM
      1 C1           0.0000     0.0000     0.0000 c3         1 0AL       0.396900
      2 C2           1.5310     0.0000     0.0000 c3         1 0AL       0.128100
      3 C3           2.0350     0.0000     1.4460 c3         1 0AL       0.148100
      4 C4           1.4540     1.2140     2.1770 c3         1 0AL       0.228100
      5 C5          -0.0740     1.1670     2.0940 c3         1 0AL       0.150100
      6 C6          -0.6600     2.4080     2.7710 c3         1 0AL       0.198100
      7 C7          -2.1870     2.3610     2.6880 c3         1 0AL       0.155400
      8 O2           2.0080     1.1670    -0.6730 oh         1 0AL      -0.524800
      9 O3           3.4620     0.0740     1.4550 oh         1 0AL      -0.504800
     10 O4           1.8590     1.1850     3.5470 os         1 0AL      -0.438200
     11 O5          -0.4750     1.1380     0.7230 os         1 0AL      -0.442600
     12 O6          -0.2590     2.4370     4.1420 oh         1 0AL      -0.483800
     13 O7          -2.7300     3.5720     3.2150 oh         1 0AL      -0.586800
     14 P            2.7220     2.3580     4.2320 p5         1 0AL       0.660900
     15 O2P          4.1780     2.4220     3.5470 o          1 0AL      -0.748500
     16 O3P          2.0310     3.6530     4.0440 o          1 0AL      -0.748500
     17 O4P          2.8830     2.0580     5.8060 o          1 0AL      -0.748500
     18 OXT         -0.4780     0.0560    -1.3450 oh         1 0AL      -0.587800
     19 H1          -0.3590    -0.9040     0.4780 h2         1 0AL      -0.037300
     20 H2           1.8900    -0.8870    -0.5070 h1         1 0AL      -0.033300
     21 HOT         -1.2800    -0.4330    -1.4140 ho         1 0AL       0.365000
     22 H3           1.7110    -0.9080     1.9410 h1         1 0AL      -0.019300
     23 HA           2.4530     0.9140    -1.4640 ho         1 0AL       0.355000
     24 H4           1.8120     2.1220     1.7080 h1         1 0AL       0.053700
     25 HB           3.8190    -0.7770     1.6490 ho         1 0AL       0.343000
     26 H5          -0.4330     0.2750     2.5920 h1         1 0AL      -0.009300
     27 H6          -0.2990     3.2970     2.2700 h1         1 0AL       0.043700
     28 H7C1        -2.4890     2.2490     1.6540 h1         1 0AL      -0.021800
     29 H7C2        -2.5550     1.5200     3.2640 h1         1 0AL      -0.021800
     30 HC          -0.7220     3.1250     4.5900 ho         1 0AL       0.374000
     31 H7          -3.6420     3.6360     2.9810 ho         1 0AL       0.355000
@<TRIPOS>BOND
     1     1     2 1   
     2     1    11 1   
     3     1    18 1   
     4     1    19 1   
     5     2     3 1   
     6     2     8 1   
     7     2    20 1   
     8     3     4 1   
     9     3     9 1   
    10     3    22 1   
    11     4     5 1   
    12     4    10 1   
    13     4    24 1   
    14     5     6 1   
    15     5    11 1   
    16     5    26 1   
    17     6     7 1   
    18     6    12 1   
    19     6    27 1   
    20     7    13 1   
    21     7    28 1   
    22     7    29 1   
    23     8    23 1   
    24     9    25 1   
    25    10    14 1   
    26    12    30 1   
    27    13    31 1   
    28    14    15 1   
    29    14    16 1   
    30    14    17 1   
    31    18    21 1   
@<TRIPOS>SUBSTRUCTURE
     1 0AL         1 TEMP              0 ****  ****    0 ROOT
