@<TRIPOS>MOLECULE
0AO
   29    30     1     0     0
SMALL
bcc


@<TRIPOS>ATOM
      1 N1          -0.1990     0.1080    -0.0950 nz         1 0AO      -0.833600
      2 C1           1.2950     0.1290    -0.2340 c3         1 0AO      -0.020500
      3 C2           2.0040    -0.1680     1.0880 c          1 0AO       0.560900
      4 C3           1.7920     1.4820    -0.7750 c3         1 0AO      -0.044100
      5 C4           1.0480     1.8850    -1.9980 ca         1 0AO      -0.164300
      6 C5           0.0920     2.8800    -1.9050 ca         1 0AO      -0.118000
      7 C6          -0.6270     3.3060    -3.0410 ca         1 0AO      -0.143000
      8 C7          -0.3810     2.7320    -4.2660 ca         1 0AO      -0.068000
      9 C8           0.6000     1.7140    -4.4010 ca         1 0AO      -0.044000
     10 C9           0.8680     1.1270    -5.6700 ca         1 0AO      -0.097000
     11 C10          1.8330     0.1600    -5.8040 ca         1 0AO      -0.116000
     12 C11          2.5760    -0.2590    -4.6740 ca         1 0AO      -0.084000
     13 C12          2.3320     0.2870    -3.4370 ca         1 0AO      -0.165000
     14 C13          1.3340     1.2850    -3.2620 ca         1 0AO      -0.025000
     15 O1           1.3790    -0.3080     2.1330 o          1 0AO      -0.477100
     16 HN1         -0.6200     0.7020    -0.8270 hn         1 0AO       0.468467
     17 HN2         -0.5470    -0.8500    -0.1850 hn         1 0AO       0.468467
     18 HXT         -0.0990     3.3840    -0.9430 ha         1 0AO       0.135000
     19 H2          -1.3730     4.1100    -2.9350 ha         1 0AO       0.158000
     20 H3           0.2890     1.4720    -6.5430 ha         1 0AO       0.154000
     21 H5           2.0470    -0.2920    -6.7850 ha         1 0AO       0.158000
     22 H6           3.3600    -1.0220    -4.8050 ha         1 0AO       0.151000
     23 H7           2.9390    -0.0310    -2.5770 ha         1 0AO       0.118000
     24 H8           1.5670    -0.6800    -0.9820 hx         1 0AO       0.134700
     25 H10          3.1080    -0.2340     0.9960 h4         1 0AO       0.076200
     26 H11          2.8890     1.3750    -0.9980 hc         1 0AO       0.094700
     27 H12          1.6930     2.2670     0.0230 hc         1 0AO       0.094700
     28 H13         -0.9320     3.0610    -5.1630 ha         1 0AO       0.158000
     29 H131        -0.4630     0.4670     0.8320 hn         1 0AO       0.468467
@<TRIPOS>BOND
     1     1     2 1   
     2     1    16 1   
     3     1    17 1   
     4     1    29 1   
     5     2     3 1   
     6     2     4 1   
     7     2    24 1   
     8     3    15 2   
     9     3    25 1   
    10     4     5 1   
    11     4    26 1   
    12     4    27 1   
    13     5     6 ar  
    14     5    14 ar  
    15     6     7 ar  
    16     6    18 1   
    17     7     8 ar  
    18     7    19 1   
    19     8     9 ar  
    20     8    28 1   
    21     9    10 ar  
    22     9    14 ar  
    23    10    11 ar  
    24    10    20 1   
    25    11    12 ar  
    26    11    21 1   
    27    12    13 ar  
    28    12    22 1   
    29    13    14 ar  
    30    13    23 1   
@<TRIPOS>SUBSTRUCTURE
     1 0AO         1 TEMP              0 ****  ****    0 ROOT
