@<TRIPOS>MOLECULE
molecule
   29    30     1     0     0
SMALL
bcc


@<TRIPOS>ATOM
      1 N1           0.0000     0.0000     0.0000 nz         1 0AO      -0.805600
      2 C1           1.4690     0.0000     0.0000 c3         1 0AO      -0.018500
      3 C2           1.9720     0.0000     1.4200 c          1 0AO       0.559900
      4 C3           1.9790     1.2490    -0.7220 c3         1 0AO      -0.038100
      5 C4           1.5800     1.1880    -2.1740 ca         1 0AO      -0.164300
      6 C5           2.4460     0.6960    -3.1020 ca         1 0AO      -0.070000
      7 C6           2.0940     0.6330    -4.4480 ca         1 0AO      -0.128000
      8 C7           0.8750     1.0610    -4.8760 ca         1 0AO      -0.071000
      9 C8          -0.0450     1.5750    -3.9480 ca         1 0AO      -0.040000
     10 C9          -1.3140     2.0260    -4.3500 ca         1 0AO      -0.073000
     11 C10         -2.1790     2.5190    -3.4230 ca         1 0AO      -0.128000
     12 C11         -1.8280     2.5830    -2.0760 ca         1 0AO      -0.073000
     13 C12         -0.6090     2.1550    -1.6490 ca         1 0AO      -0.218000
     14 C13          0.3090     1.6340    -2.5770 ca         1 0AO      -0.043000
     15 HN1         -0.3340     0.8460     0.4180 hn         1 0AO       0.463800
     16 HN2         -0.3340    -0.7850     0.5240 hn         1 0AO       0.463800
     17 HXT          3.4230     0.3480    -2.7880 ha         1 0AO       0.141000
     18 H2           2.8020     0.2370    -5.1660 ha         1 0AO       0.156000
     19 H3          -1.6010     1.9830    -5.3940 ha         1 0AO       0.158000
     20 H5          -3.1560     2.8660    -3.7360 ha         1 0AO       0.157000
     21 H6          -2.5360     2.9800    -1.3580 ha         1 0AO       0.145000
     22 H7          -0.3490     2.2100    -0.5990 ha         1 0AO       0.099000
     23 O1           1.1880     0.0000     2.3380 o          1 0AO      -0.485100
     24 H8           1.8300    -0.8850    -0.5100 hx         1 0AO       0.133700
     25 H10          3.0370    -0.0260     1.6170 h4         1 0AO       0.071200
     26 H11          1.5480     2.1310    -0.2660 hc         1 0AO       0.092200
     27 H12          3.0590     1.2940    -0.6460 hc         1 0AO       0.092200
     28 H13          0.6160     1.0050    -5.9270 ha         1 0AO       0.158000
     29 H131        -0.3340    -0.0660    -0.9410 hn         1 0AO       0.463800
@<TRIPOS>BOND
     1     1     2 1
     2     1    15 1
     3     1    16 1
     4     2     3 1
     5     2     4 1
     6     4     5 1
     7     5     6 ar
     8     5    14 ar
     9     6     7 ar
    10     6    17 1
    11     7     8 ar
    12     7    18 1
    13     8     9 ar
    14     9    10 ar
    15     9    14 ar
    16    10    11 ar
    17    10    19 1
    18    11    12 ar
    19    11    20 1
    20    12    13 ar
    21    12    21 1
    22    13    14 ar
    23    13    22 1
    24     3    23 2
    25     2    24 1
    26     3    25 1
    27     4    26 1
    28     4    27 1
    29     8    28 1
    30    29     1 1
@<TRIPOS>SUBSTRUCTURE
     1 0AO         1 TEMP              0 ****  ****    0 ROOT
