@<TRIPOS>MOLECULE
molecule
   48    51     1     0     0
SMALL
bcc


@<TRIPOS>ATOM
      1 O1           0.0000     0.0000     0.0000 o          1 0B1      -0.564500
      2 C1           1.2200     0.0000     0.0000 c          1 0B1       0.683700
      3 N2           1.9090     0.0000     1.1610 n          1 0B1      -0.357300
      4 C5           1.1940    -0.0010     2.4400 c3         1 0B1       0.041300
      5 C4           3.2700     0.0010     1.1400 cc         1 0B1       0.469800
      6 N3           3.9600    -0.0010     2.3220 nz         1 0B1      -0.729600
      7 N1           3.9330     0.0010     0.0010 nd         1 0B1      -0.578300
      8 C3           3.3000     0.0010    -1.1700 cd         1 0B1       0.217400
      9 C2           1.9360    -0.0040    -1.2100 cc         1 0B1      -0.202200
     10 C6           4.0910     0.0030    -2.4520 cx         1 0B1      -0.111500
     11 C21          5.6040     0.2060    -2.3490 cx         1 0B1      -0.099400
     12 C7           5.0400    -1.1720    -2.6980 cx         1 0B1      -0.048400
     13 C8           5.1120    -2.2420    -1.6390 ca         1 0B1      -0.058300
     14 C13          5.5010    -1.9140    -0.3520 ca         1 0B1      -0.150000
     15 C12          5.5680    -2.8910     0.6240 ca         1 0B1      -0.162000
     16 C11          5.2490    -4.1990     0.3200 ca         1 0B1      -0.109000
     17 C10          4.8570    -4.5340    -0.9740 cp         1 0B1      -0.007000
     18 C9           4.7850    -3.5450    -1.9530 ca         1 0B1      -0.096000
     19 C14          4.5120    -5.9390    -1.3070 cp         1 0B1      -0.024000
     20 C20          4.1260    -6.2750    -2.6030 ca         1 0B1      -0.153000
     21 C19          3.8060    -7.5820    -2.9110 ca         1 0B1      -0.082000
     22 C18          3.8680    -8.5610    -1.9360 ca         1 0B1      -0.204000
     23 C16          4.2500    -8.2340    -0.6430 ca         1 0B1       0.150100
     24 C15          4.5800    -6.9250    -0.3270 ca         1 0B1      -0.149000
     25 O2           4.3090    -9.1980     0.3130 os         1 0B1      -0.328900
     26 C17          3.9630   -10.5270    -0.0850 c3         1 0B1       0.126700
     27 H1           1.4570     0.8860     3.0030 h1         1 0B1       0.078033
     28 H2           0.1260    -0.0090     2.2570 h1         1 0B1       0.078033
     29 H3           1.4690    -0.8830     3.0070 h1         1 0B1       0.078033
     30 H5           3.6680     0.7770     2.8800 hn         1 0B1       0.478467
     31 H6           3.7770    -0.8520     2.8150 hn         1 0B1       0.478467
     32 H8           1.4130    -0.0040    -2.1590 ha         1 0B1       0.206000
     33 H10          3.6380     0.4140    -3.3460 hc         1 0B1       0.120700
     34 H11          5.9940     0.3110    -1.3440 hc         1 0B1       0.092200
     35 H12          6.0600     0.7460    -3.1700 hc         1 0B1       0.092200
     36 H13          5.1500    -1.4570    -3.7370 hc         1 0B1       0.110700
     37 H14          5.7520    -0.8890    -0.1090 ha         1 0B1       0.134000
     38 H15          5.8730    -2.6290     1.6300 ha         1 0B1       0.103000
     39 H16          5.3040    -4.9630     1.0860 ha         1 0B1       0.147000
     40 H17          4.4810    -3.8010    -2.9610 ha         1 0B1       0.150000
     41 H18          4.0770    -5.5100    -3.3690 ha         1 0B1       0.131000
     42 H19          3.5060    -7.8410    -3.9190 ha         1 0B1       0.141000
     43 H20          3.6120    -9.5840    -2.1820 ha         1 0B1       0.145000
     44 H21          4.8790    -6.6690     0.6820 ha         1 0B1       0.141000
     45 H22          4.0510   -11.1930     0.7650 h1         1 0B1       0.047700
     46 H23          4.6320   -10.8550    -0.8720 h1         1 0B1       0.047700
     47 H24          2.9430   -10.5400    -0.4490 h1         1 0B1       0.047700
     48 H33          4.9410     0.0660     2.1350 hn         1 0B1       0.478467
@<TRIPOS>BOND
     1    11    10 1
     2    11    12 1
     3     1     2 2
     4     9     2 1
     5     9     8 2
     6    14    15 ar
     7    14    13 ar
     8    10    12 1
     9    10     8 1
    10    12    13 1
    11     2     3 1
    12     8     7 1
    13    15    16 ar
    14    13    18 ar
    15     3     4 1
    16     3     5 1
    17     7     5 2
    18    16    17 ar
    19    18    17 ar
    20     5     6 1
    21    17    19 1
    22    19    24 ar
    23    19    20 ar
    24    24    23 ar
    25    20    21 ar
    26    26    25 1
    27    23    25 1
    28    23    22 ar
    29    21    22 ar
    30     4    27 1
    31     4    28 1
    32     4    29 1
    33     6    30 1
    34     6    31 1
    35     9    32 1
    36    10    33 1
    37    11    34 1
    38    11    35 1
    39    12    36 1
    40    14    37 1
    41    15    38 1
    42    16    39 1
    43    18    40 1
    44    20    41 1
    45    21    42 1
    46    22    43 1
    47    24    44 1
    48    26    45 1
    49    26    46 1
    50    26    47 1
    51    48     6 1
@<TRIPOS>SUBSTRUCTURE
     1 0B1         1 TEMP              0 ****  ****    0 ROOT
