@<TRIPOS>MOLECULE
0B1
   48    51     1     0     0
SMALL
bcc


@<TRIPOS>ATOM
      1 O1           0.0000     0.0000     0.0000 o          1 0B1      -0.599500
      2 C1           1.2200     0.0000     0.0000 c          1 0B1       0.582700
      3 N2           1.9090     0.0000     1.1610 n          1 0B1       0.070700
      4 C5           1.1940    -0.0010     2.4400 c3         1 0B1       0.017300
      5 C4           3.2700     0.0010     1.1400 cc         1 0B1       0.016800
      6 N3           3.9600    -0.0010     2.3220 nz         1 0B1       0.205400
      7 N1           3.9330     0.0010     0.0010 nd         1 0B1      -0.399300
      8 C3           3.3000     0.0010    -1.1700 cd         1 0B1       0.149400
      9 C2           1.9360    -0.0040    -1.2100 cc         1 0B1      -0.137200
     10 C6           4.0910     0.0030    -2.4520 cx         1 0B1      -0.089500
     11 C21          5.6040     0.2060    -2.3490 cx         1 0B1      -0.054400
     12 C7           5.0400    -1.1720    -2.6980 cx         1 0B1      -0.008400
     13 C8           5.1120    -2.2420    -1.6390 ca         1 0B1      -0.055300
     14 C13          5.5010    -1.9140    -0.3520 ca         1 0B1      -0.168000
     15 C12          5.5680    -2.8910     0.6240 ca         1 0B1      -0.127000
     16 C11          5.2490    -4.1990     0.3200 ca         1 0B1      -0.092000
     17 C10          4.8570    -4.5340    -0.9740 cp         1 0B1       0.005000
     18 C9           4.7850    -3.5450    -1.9530 ca         1 0B1      -0.078000
     19 C14          4.5120    -5.9390    -1.3070 cp         1 0B1      -0.023000
     20 C20          4.1260    -6.2750    -2.6030 ca         1 0B1      -0.137000
     21 C19          3.8060    -7.5820    -2.9110 ca         1 0B1      -0.045000
     22 C18          3.8680    -8.5610    -1.9360 ca         1 0B1      -0.192000
     23 C16          4.2500    -8.2340    -0.6430 ca         1 0B1       0.162100
     24 C15          4.5800    -6.9250    -0.3270 ca         1 0B1      -0.138000
     25 O2           4.3090    -9.1980     0.3130 os         1 0B1      -0.308900
     26 C17          3.9630   -10.5270    -0.0850 c3         1 0B1       0.243700
     27 H1           1.4570     0.8860     3.0030 h1         1 0B1       0.046700
     28 H2           0.1260    -0.0090     2.2570 h1         1 0B1       0.046700
     29 H3           1.4690    -0.8830     3.0070 h1         1 0B1       0.046700
     30 H5           3.6680     0.7770     2.8800 hn         1 0B1       0.223467
     31 H6           3.7770    -0.8520     2.8150 hn         1 0B1       0.223467
     32 H8           1.4130    -0.0040    -2.1590 ha         1 0B1       0.169000
     33 H10          3.6380     0.4140    -3.3460 hc         1 0B1       0.088700
     34 H11          5.9940     0.3110    -1.3440 hc         1 0B1       0.062200
     35 H12          6.0600     0.7460    -3.1700 hc         1 0B1       0.062200
     36 H13          5.1500    -1.4570    -3.7370 hc         1 0B1       0.077700
     37 H14          5.7520    -0.8890    -0.1090 ha         1 0B1       0.124000
     38 H15          5.8730    -2.6290     1.6300 ha         1 0B1       0.080000
     39 H16          5.3040    -4.9630     1.0860 ha         1 0B1       0.124000
     40 H17          4.4810    -3.8010    -2.9610 ha         1 0B1       0.128000
     41 H18          4.0770    -5.5100    -3.3690 ha         1 0B1       0.111000
     42 H19          3.5060    -7.8410    -3.9190 ha         1 0B1       0.108000
     43 H20          3.6120    -9.5840    -2.1820 ha         1 0B1       0.128000
     44 H21          4.8790    -6.6690     0.6820 ha         1 0B1       0.119000
     45 H22          4.0510   -11.1930     0.7650 h1         1 0B1       0.002367
     46 H23          4.6320   -10.8550    -0.8720 h1         1 0B1       0.002367
     47 H24          2.9430   -10.5400    -0.4490 h1         1 0B1       0.002367
     48 H33          4.9410     0.0660     2.1350 hn         1 0B1       0.223467
@<TRIPOS>BOND
     1     1     2 2   
     2     2     3 1   
     3     2     9 1   
     4     3     4 1   
     5     3     5 1   
     6     4    27 1   
     7     4    28 1   
     8     4    29 1   
     9     5     6 1   
    10     5     7 2   
    11     6    30 1   
    12     6    31 1   
    13     6    48 1   
    14     7     8 1   
    15     8     9 2   
    16     8    10 1   
    17     9    32 1   
    18    10    11 1   
    19    10    12 1   
    20    10    33 1   
    21    11    12 1   
    22    11    34 1   
    23    11    35 1   
    24    12    13 1   
    25    12    36 1   
    26    13    14 ar  
    27    13    18 ar  
    28    14    15 ar  
    29    14    37 1   
    30    15    16 ar  
    31    15    38 1   
    32    16    17 ar  
    33    16    39 1   
    34    17    18 ar  
    35    17    19 1   
    36    18    40 1   
    37    19    20 ar  
    38    19    24 ar  
    39    20    21 ar  
    40    20    41 1   
    41    21    22 ar  
    42    21    42 1   
    43    22    23 ar  
    44    22    43 1   
    45    23    24 ar  
    46    23    25 1   
    47    24    44 1   
    48    25    26 1   
    49    26    45 1   
    50    26    46 1   
    51    26    47 1   
@<TRIPOS>SUBSTRUCTURE
     1 0B1         1 TEMP              0 ****  ****    0 ROOT
