@<TRIPOS>MOLECULE
0B1
   48    51     1     0     0
SMALL
bcc


@<TRIPOS>ATOM
      1 O1          -0.2570    -0.0200     0.3600 o          1 0B1      -0.543500
      2 C1           0.9570     0.1750     0.2470 c          1 0B1       0.700700
      3 N2           1.6670     0.7120     1.3810 n          1 0B1      -0.388300
      4 C5           0.9660     1.0460     2.5920 c3         1 0B1       0.029300
      5 C4           3.0400     0.9220     1.2320 cc         1 0B1       0.535800
      6 N3           3.7960     1.5120     2.3860 nz         1 0B1      -0.803600
      7 N1           3.7720     0.6480     0.1580 nd         1 0B1      -0.582300
      8 C3           3.1070     0.1480    -0.9680 cd         1 0B1       0.225400
      9 C2           1.7600    -0.0890    -0.9490 cc         1 0B1      -0.228200
     10 C6           3.9350    -0.1410    -2.1610 cx         1 0B1      -0.105500
     11 C21          3.3920     0.1220    -3.5400 cx         1 0B1      -0.103400
     12 C7           4.5370     0.9500    -3.0290 cx         1 0B1      -0.044400
     13 C8           4.3660     2.3790    -2.7280 ca         1 0B1      -0.073300
     14 C13          3.6670     3.2250    -3.6000 ca         1 0B1      -0.104000
     15 C12          3.5300     4.5790    -3.3000 ca         1 0B1      -0.121000
     16 C11          4.0480     5.0980    -2.1120 ca         1 0B1      -0.098000
     17 C10          4.7330     4.2570    -1.2310 cp         1 0B1      -0.071000
     18 C9           4.9340     2.9120    -1.5680 ca         1 0B1      -0.114000
     19 C14          5.1860     4.7100     0.0870 cp         1 0B1       0.012000
     20 C20          6.3510     5.4620     0.2690 ca         1 0B1      -0.121000
     21 C19          6.7710     5.7990     1.5570 ca         1 0B1      -0.081000
     22 C18          6.0570     5.3730     2.6780 ca         1 0B1      -0.167000
     23 C16          4.8910     4.6230     2.4880 ca         1 0B1       0.079100
     24 C15          4.4300     4.3190     1.2010 ca         1 0B1      -0.204000
     25 O2           4.1540     4.0730     3.5310 os         1 0B1      -0.425900
     26 C17          4.1360     4.8390     4.7390 c3         1 0B1       0.121700
     27 H1          -0.1130     0.7280     2.4900 h1         1 0B1       0.079700
     28 H2           0.9850     2.1550     2.7720 h1         1 0B1       0.079700
     29 H3           1.4090     0.5030     3.4700 h1         1 0B1       0.079700
     30 H5           3.2240     2.2200     2.8770 hn         1 0B1       0.487467
     31 H6           4.6450     1.9960     2.0380 hn         1 0B1       0.487467
     32 H8           1.2100    -0.4840    -1.8180 ha         1 0B1       0.205000
     33 H10          4.5550    -1.0520    -2.0030 hc         1 0B1       0.116700
     34 H11          2.3980     0.5950    -3.6470 hc         1 0B1       0.091700
     35 H12          3.5810    -0.6280    -4.3310 hc         1 0B1       0.091700
     36 H13          5.5520     0.7380    -3.4370 hc         1 0B1       0.108700
     37 H14          3.2320     2.8170    -4.5260 ha         1 0B1       0.147000
     38 H15          3.0000     5.2430    -4.0000 ha         1 0B1       0.151000
     39 H16          3.9110     6.1630    -1.8680 ha         1 0B1       0.149000
     40 H17          5.5460     2.2720    -0.9150 ha         1 0B1       0.137000
     41 H18          6.9360     5.7870    -0.6050 ha         1 0B1       0.162000
     42 H19          7.6830     6.4020     1.6940 ha         1 0B1       0.158000
     43 H20          6.4020     5.6310     3.6890 ha         1 0B1       0.154000
     44 H21          3.4580     3.8280     1.0530 ha         1 0B1       0.126000
     45 H22          3.9540     5.9190     4.5210 h1         1 0B1       0.058700
     46 H23          5.1040     4.7030     5.2800 h1         1 0B1       0.058700
     47 H24          3.2880     4.4020     5.3230 h1         1 0B1       0.058700
     48 H33          4.0620     0.7650     3.0340 hn         1 0B1       0.487467
@<TRIPOS>BOND
     1     1     2 2   
     2     2     3 1   
     3     2     9 1   
     4     3     4 1   
     5     3     5 1   
     6     4    27 1   
     7     4    28 1   
     8     4    29 1   
     9     5     6 1   
    10     5     7 2   
    11     6    30 1   
    12     6    31 1   
    13     6    48 1   
    14     7     8 1   
    15     8     9 2   
    16     8    10 1   
    17     9    32 1   
    18    10    11 1   
    19    10    12 1   
    20    10    33 1   
    21    11    12 1   
    22    11    34 1   
    23    11    35 1   
    24    12    13 1   
    25    12    36 1   
    26    13    14 ar  
    27    13    18 ar  
    28    14    15 ar  
    29    14    37 1   
    30    15    16 ar  
    31    15    38 1   
    32    16    17 ar  
    33    16    39 1   
    34    17    18 ar  
    35    17    19 1   
    36    18    40 1   
    37    19    20 ar  
    38    19    24 ar  
    39    20    21 ar  
    40    20    41 1   
    41    21    22 ar  
    42    21    42 1   
    43    22    23 ar  
    44    22    43 1   
    45    23    24 ar  
    46    23    25 1   
    47    24    44 1   
    48    25    26 1   
    49    26    45 1   
    50    26    46 1   
    51    26    47 1   
@<TRIPOS>SUBSTRUCTURE
     1 0B1         1 TEMP              0 ****  ****    0 ROOT
