@<TRIPOS>MOLECULE
molecule
   39    39     1     0     0
SMALL
bcc


@<TRIPOS>ATOM
      1 N28          0.0000     0.0000     0.0000 nz         1 0B2      -0.800600
      2 C29          1.4700     0.0000     0.0000 c3         1 0B2      -0.005500
      3 C30          1.9800     1.2490    -0.7210 c3         1 0B2      -0.099400
      4 C41          1.5800     1.1850    -2.1970 c3         1 0B2      -0.085700
      5 C42          1.9600     2.4970    -2.8860 c3         1 0B2      -0.077400
      6 C43          1.5600     2.4330    -4.3620 c3         1 0B2      -0.078400
      7 C44          2.2900     1.2710    -5.0380 c3         1 0B2      -0.081400
      8 C45          1.9080    -0.0410    -4.3490 c3         1 0B2      -0.078400
      9 C46          2.3090     0.0230    -2.8740 c3         1 0B2      -0.077400
     10 C31          1.9720     0.0000     1.4200 c          1 0B2       0.558100
     11 O32          1.2210     0.2700     2.3260 o          1 0B2      -0.501100
     12 C37          3.4110    -0.3390     1.7100 c3         1 0B2      -0.160700
     13 C38          3.5680    -1.8580     1.8100 c3         1 0B2      -0.076100
     14 C39          3.8300     0.3050     3.0340 c3         1 0B2       0.156400
     15 O40          5.2250     0.0830     3.2520 oh         1 0B2      -0.601800
     16 H28         -0.3340     0.9310     0.1540 hn         1 0B2       0.461133
     17 H29          1.8310    -0.8850    -0.5110 hx         1 0B2       0.137700
     18 H30          1.5450     2.1310    -0.2670 hc         1 0B2       0.089200
     19 H31          3.0590     1.2960    -0.6410 hc         1 0B2       0.089200
     20 H32          0.5100     1.0330    -2.2790 hc         1 0B2       0.024700
     21 H33          1.4410     3.3180    -2.4080 hc         1 0B2       0.047950
     22 H34          3.0300     2.6460    -2.8100 hc         1 0B2       0.047950
     23 H35          1.8320     3.3610    -4.8490 hc         1 0B2       0.053450
     24 H36          0.4900     2.2790    -4.4380 hc         1 0B2       0.053450
     25 H37          3.3590     1.4220    -4.9570 hc         1 0B2       0.059200
     26 H38          2.0040     1.2260    -6.0820 hc         1 0B2       0.059200
     27 H39          2.4260    -0.8630    -4.8270 hc         1 0B2       0.053450
     28 H40          0.8370    -0.1890    -4.4250 hc         1 0B2       0.053450
     29 H41          3.3790     0.1770    -2.7980 hc         1 0B2       0.047950
     30 H42          2.0370    -0.9050    -2.3860 hc         1 0B2       0.047950
     31 H45          4.0390     0.0370     0.9110 hc         1 0B2       0.085700
     32 H46          2.6280    -2.3350     1.5640 hc         1 0B2       0.056033
     33 H47          3.8550    -2.1250     2.8200 hc         1 0B2       0.056033
     34 H48          4.3330    -2.1880     1.1180 hc         1 0B2       0.056033
     35 H49          3.2630    -0.1360     3.8450 h1         1 0B2       0.041700
     36 H50          3.6360     1.3700     2.9950 h1         1 0B2       0.041700
     37 H51          5.5520     0.7190     3.8660 ho         1 0B2       0.426000
     38 H2          -0.3340    -0.5990     0.7290 hn         1 0B2       0.461133
     39 H283        -0.3340    -0.3320    -0.8830 hn         1 0B2       0.461133
@<TRIPOS>BOND
     1    10    12 1   
     2    10    11 2   
     3    10     2 1   
     4    12    13 1   
     5    12    14 1   
     6    15    14 1   
     7     3     2 1   
     8     3     4 1   
     9     5     4 1   
    10     5     6 1   
    11     2     1 1   
    12     4     9 1   
    13     6     7 1   
    14     9     8 1   
    15     7     8 1   
    16     1    16 1   
    17     2    17 1   
    18     3    18 1   
    19     3    19 1   
    20     4    20 1   
    21     5    21 1   
    22     5    22 1   
    23     6    23 1   
    24     6    24 1   
    25     7    25 1   
    26     7    26 1   
    27     8    27 1   
    28     8    28 1   
    29     9    29 1   
    30     9    30 1   
    31    12    31 1   
    32    13    32 1   
    33    13    33 1   
    34    13    34 1   
    35    14    35 1   
    36    14    36 1   
    37    15    37 1   
    38     1    38 1   
    39    39     1 1   
@<TRIPOS>SUBSTRUCTURE
     1 0B2         1 TEMP              0 ****  ****    0 ROOT
