@<TRIPOS>MOLECULE
0B2
   39    39     1     0     0
SMALL
bcc


@<TRIPOS>ATOM
      1 N28         -0.3560     0.6070     0.2030 nz         1 0B2      -0.834600
      2 C29          1.0770     0.1650     0.2270 c3         1 0B2       0.018500
      3 C30          2.0090     1.1370    -0.4940 c3         1 0B2      -0.110400
      4 C41          1.6140     1.4560    -1.9270 c3         1 0B2      -0.077700
      5 C42          2.6780     2.3680    -2.5350 c3         1 0B2      -0.075400
      6 C43          2.3370     2.7210    -3.9670 c3         1 0B2      -0.078900
      7 C44          2.1540     1.4790    -4.8130 c3         1 0B2      -0.082400
      8 C45          1.1160     0.5550    -4.2120 c3         1 0B2      -0.078900
      9 C46          1.4500     0.2040    -2.7760 c3         1 0B2      -0.075400
     10 C31          1.5240     0.0240     1.6960 c          1 0B2       0.566100
     11 O32          1.4820     1.0120     2.4270 o          1 0B2      -0.474100
     12 C37          1.9360    -1.3480     2.1500 c3         1 0B2      -0.190700
     13 C38          3.2620    -1.7510     1.5400 c3         1 0B2      -0.097100
     14 C39          0.8540    -2.3790     1.8110 c3         1 0B2       0.128400
     15 O40         -0.4350    -1.7870     1.8720 oh         1 0B2      -0.663800
     16 H28         -0.4470     1.4980     0.7020 hn         1 0B2       0.468800
     17 H29          1.1110    -0.8460    -0.2810 hx         1 0B2       0.123700
     18 H30          3.0280     0.6600    -0.4870 hc         1 0B2       0.092700
     19 H31          2.0830     2.0920     0.0950 hc         1 0B2       0.092700
     20 H32          0.6420     2.0260    -1.9330 hc         1 0B2       0.032700
     21 H33          2.7610     3.3040    -1.9240 hc         1 0B2       0.042450
     22 H34          3.6720     1.8500    -2.5030 hc         1 0B2       0.042450
     23 H35          1.3980     3.3360    -3.9910 hc         1 0B2       0.052700
     24 H36          3.1600     3.3510    -4.3970 hc         1 0B2       0.052700
     25 H37          3.1320     0.9370    -4.9020 hc         1 0B2       0.057700
     26 H38          1.8380     1.7720    -5.8480 hc         1 0B2       0.057700
     27 H39          0.1080     1.0470    -4.2530 hc         1 0B2       0.052700
     28 H40          1.0550    -0.3880    -4.8180 hc         1 0B2       0.052700
     29 H41          0.6330    -0.4420    -2.3580 hc         1 0B2       0.042450
     30 H42          2.4010    -0.3920    -2.7470 hc         1 0B2       0.042450
     31 H45          2.0540    -1.3040     3.2730 hc         1 0B2       0.109700
     32 H46          4.0700    -1.0530     1.8690 hc         1 0B2       0.061033
     33 H47          3.2120    -1.7440     0.4250 hc         1 0B2       0.061033
     34 H48          3.5310    -2.7830     1.8760 hc         1 0B2       0.061033
     35 H49          0.9630    -2.7470     0.7540 h1         1 0B2       0.073700
     36 H50          0.9370    -3.2540     2.5070 h1         1 0B2       0.073700
     37 H51         -0.8000    -1.9500     2.7500 ho         1 0B2       0.440000
     38 H2          -0.6620     0.7250    -0.7680 hn         1 0B2       0.468800
     39 H283        -0.9350    -0.1070     0.6700 hn         1 0B2       0.468800
@<TRIPOS>BOND
     1     1     2 1   
     2     1    16 1   
     3     1    38 1   
     4     1    39 1   
     5     2     3 1   
     6     2    10 1   
     7     2    17 1   
     8     3     4 1   
     9     3    18 1   
    10     3    19 1   
    11     4     5 1   
    12     4     9 1   
    13     4    20 1   
    14     5     6 1   
    15     5    21 1   
    16     5    22 1   
    17     6     7 1   
    18     6    23 1   
    19     6    24 1   
    20     7     8 1   
    21     7    25 1   
    22     7    26 1   
    23     8     9 1   
    24     8    27 1   
    25     8    28 1   
    26     9    29 1   
    27     9    30 1   
    28    10    11 2   
    29    10    12 1   
    30    12    13 1   
    31    12    14 1   
    32    12    31 1   
    33    13    32 1   
    34    13    33 1   
    35    13    34 1   
    36    14    15 1   
    37    14    35 1   
    38    14    36 1   
    39    15    37 1   
@<TRIPOS>SUBSTRUCTURE
     1 0B2         1 TEMP              0 ****  ****    0 ROOT
