@<TRIPOS>MOLECULE
0B3
   38    39     1     0     0
SMALL
bcc


@<TRIPOS>ATOM
      1 O           -0.1640    -0.4660     0.1410 o          1 0B3      -0.525500
      2 C5           1.0450    -0.2480     0.0580 c          1 0B3       0.714500
      3 N3           1.8720    -0.5480     1.1830 n          1 0B3      -0.442300
      4 C4           1.3060    -1.0020     2.4240 c3         1 0B3       0.043300
      5 C3           3.2310    -0.1770     1.0810 c2         1 0B3       0.541800
      6 N2           4.1450    -0.7100     2.1610 nz         1 0B3      -0.809600
      7 N1           3.8130     0.5300     0.1590 n2         1 0B3      -0.573900
      8 C6           1.7210     0.2730    -1.1860 c3         1 0B3      -0.183400
      9 C2           3.0050     1.0960    -0.9230 c3         1 0B3       0.151200
     10 C1           3.8240     1.0880    -2.2260 c3         1 0B3      -0.087100
     11 C7           2.5730     2.5480    -0.6000 c3         1 0B3      -0.078400
     12 C8           3.7090     3.4700    -0.2020 c3         1 0B3      -0.025100
     13 C9           3.2250     4.8740    -0.0790 ca         1 0B3      -0.105300
     14 C14          2.9860     5.6370    -1.2280 ca         1 0B3      -0.126000
     15 C13          2.5450     6.9550    -1.1170 ca         1 0B3      -0.119500
     16 C12          2.3410     7.5200     0.1420 ca         1 0B3      -0.114000
     17 C11          2.5810     6.7660     1.2900 ca         1 0B3      -0.119500
     18 C10          3.0210     5.4470     1.1810 ca         1 0B3      -0.126000
     19 H1           0.1900    -1.1130     2.2990 h1         1 0B3       0.071700
     20 H2           1.7250    -2.0060     2.7030 h1         1 0B3       0.071700
     21 H3           1.4940    -0.2650     3.2500 h1         1 0B3       0.071700
     22 H4           4.1250    -1.7360     2.1440 hn         1 0B3       0.477800
     23 H5           5.1080    -0.3830     1.9960 hn         1 0B3       0.477800
     24 H6           1.9550    -0.6160    -1.8350 hc         1 0B3       0.115700
     25 H7           0.9780     0.9080    -1.7420 hc         1 0B3       0.115700
     26 H8           4.7620     1.6830    -2.1120 hc         1 0B3       0.064700
     27 H9           4.0960     0.0470    -2.5230 hc         1 0B3       0.064700
     28 H10          3.2030     1.5440    -3.0350 hc         1 0B3       0.064700
     29 H11          2.0770     2.9570    -1.5210 hc         1 0B3       0.066200
     30 H12          1.8040     2.5270     0.2160 hc         1 0B3       0.066200
     31 H13          4.5240     3.4260    -0.9740 hc         1 0B3       0.049700
     32 H14          4.1560     3.1400     0.7720 hc         1 0B3       0.049700
     33 H15          3.1530     5.1970    -2.2220 ha         1 0B3       0.125000
     34 H16          2.3610     7.5500    -2.0240 ha         1 0B3       0.141500
     35 H17          1.9940     8.5620     0.2290 ha         1 0B3       0.145000
     36 H18          2.4250     7.2110     2.2840 ha         1 0B3       0.141500
     37 H19          3.2150     4.8600     2.0910 ha         1 0B3       0.125000
     38 H23          3.8210    -0.3740     3.0750 hn         1 0B3       0.477800
@<TRIPOS>BOND
     1     1     2 2   
     2     2     3 1   
     3     2     8 1   
     4     3     4 1   
     5     3     5 1   
     6     4    19 1   
     7     4    20 1   
     8     4    21 1   
     9     5     6 1   
    10     5     7 2   
    11     6    22 1   
    12     6    23 1   
    13     6    38 1   
    14     7     9 1   
    15     8     9 1   
    16     8    24 1   
    17     8    25 1   
    18     9    10 1   
    19     9    11 1   
    20    10    26 1   
    21    10    27 1   
    22    10    28 1   
    23    11    12 1   
    24    11    29 1   
    25    11    30 1   
    26    12    13 1   
    27    12    31 1   
    28    12    32 1   
    29    13    14 ar  
    30    13    18 ar  
    31    14    15 ar  
    32    14    33 1   
    33    15    16 ar  
    34    15    34 1   
    35    16    17 ar  
    36    16    35 1   
    37    17    18 ar  
    38    17    36 1   
    39    18    37 1   
@<TRIPOS>SUBSTRUCTURE
     1 0B3         1 TEMP              0 ****  ****    0 ROOT
