@<TRIPOS>MOLECULE
molecule
   38    39     1     0     0
SMALL
bcc


@<TRIPOS>ATOM
      1 O            0.0000     0.0000     0.0000 o          1 0B3      -0.535500
      2 C5           1.2130     0.0000     0.0000 c          1 0B3       0.697500
      3 N3           1.8950     0.0000     1.1640 n          1 0B3      -0.438300
      4 C4           1.1710    -0.0100     2.4370 c3         1 0B3       0.057300
      5 C3           3.2740     0.0110     1.1560 c2         1 0B3       0.491800
      6 N2           3.9500     0.4090     2.2850 nz         1 0B3      -0.740600
      7 N1           3.9470    -0.3480     0.1070 n2         1 0B3      -0.578900
      8 C6           1.9750    -0.0090    -1.3020 c3         1 0B3      -0.163400
      9 C2           3.2770    -0.7850    -1.1170 c3         1 0B3       0.135200
     10 C1           2.9670    -2.2790    -1.0090 c3         1 0B3      -0.099100
     11 C7           4.1910    -0.5400    -2.3200 c3         1 0B3      -0.057400
     12 C8           5.4960    -1.3180    -2.1350 c3         1 0B3      -0.029100
     13 C9           6.3950    -1.0760    -3.3190 ca         1 0B3      -0.104300
     14 C14          6.3220    -1.9040    -4.4240 ca         1 0B3      -0.124000
     15 C13          7.1480    -1.6830    -5.5100 ca         1 0B3      -0.118000
     16 C12          8.0470    -0.6330    -5.4920 ca         1 0B3      -0.115000
     17 C11          8.1200     0.1950    -4.3880 ca         1 0B3      -0.118000
     18 C10          7.2910    -0.0230    -3.3030 ca         1 0B3      -0.124000
     19 H1           1.1760     0.9870     2.8630 h1         1 0B3       0.068700
     20 H2           1.6520    -0.6980     3.1210 h1         1 0B3       0.068700
     21 H3           0.1480    -0.3250     2.2690 h1         1 0B3       0.068700
     22 H4           4.9140     0.5600     2.0610 hn         1 0B3       0.477467
     23 H5           3.5510     1.2590     2.6310 hn         1 0B3       0.477467
     24 H6           1.3760    -0.5510    -2.0230 hc         1 0B3       0.111700
     25 H7           2.2410     1.0170    -1.5270 hc         1 0B3       0.111700
     26 H8           2.0600    -2.4200    -0.4340 hc         1 0B3       0.063033
     27 H9           2.8320    -2.6920    -2.0020 hc         1 0B3       0.063033
     28 H10          3.7890    -2.7840    -0.5170 hc         1 0B3       0.063033
     29 H11          4.4090     0.5190    -2.3970 hc         1 0B3       0.069700
     30 H12          3.6960    -0.8740    -3.2230 hc         1 0B3       0.069700
     31 H13          5.2780    -2.3760    -2.0570 hc         1 0B3       0.051200
     32 H14          5.9910    -0.9840    -1.2310 hc         1 0B3       0.051200
     33 H15          5.6170    -2.7270    -4.4390 ha         1 0B3       0.125000
     34 H16          7.0900    -2.3320    -6.3750 ha         1 0B3       0.138500
     35 H17          8.6950    -0.4610    -6.3420 ha         1 0B3       0.141000
     36 H18          8.8230     1.0190    -4.3750 ha         1 0B3       0.138500
     37 H19          7.3490     0.6260    -2.4380 ha         1 0B3       0.125000
     38 H23          3.8870    -0.3070     2.9820 hn         1 0B3       0.477467
@<TRIPOS>BOND
     1     1     2 2   
     2     8     2 1   
     3     8     9 1   
     4     2     3 1   
     5    10     9 1   
     6     9    11 1   
     7     9     7 1   
     8    11    12 1   
     9     3     4 1   
    10     3     5 1   
    11    14    15 ar  
    12    14    13 ar  
    13    15    16 ar  
    14     7     5 2   
    15    12    13 1   
    16     5     6 1   
    17    13    18 ar  
    18    16    17 ar  
    19    18    17 ar  
    20     4    19 1   
    21     4    20 1   
    22     4    21 1   
    23     6    22 1   
    24     6    23 1   
    25     8    24 1   
    26     8    25 1   
    27    10    26 1   
    28    10    27 1   
    29    10    28 1   
    30    11    29 1   
    31    11    30 1   
    32    12    31 1   
    33    12    32 1   
    34    14    33 1   
    35    15    34 1   
    36    16    35 1   
    37    17    36 1   
    38    18    37 1   
    39    38     6 1   
@<TRIPOS>SUBSTRUCTURE
     1 0B3         1 TEMP              0 ****  ****    0 ROOT
