@<TRIPOS>MOLECULE
0B4
   39    41     1     0     0
SMALL
bcc


@<TRIPOS>ATOM
      1 O           -0.0790    -0.3490    -0.0270 o          1 0B4      -0.524500
      2 C5           1.1340    -0.1470    -0.0980 c          1 0B4       0.719500
      3 N3           1.9130    -0.2600     1.0960 n          1 0B4      -0.441300
      4 C4           1.2910    -0.4940     2.3700 c3         1 0B4       0.043300
      5 C3           3.2750     0.0920     0.9910 c2         1 0B4       0.547800
      6 N2           4.1370    -0.2330     2.1920 nz         1 0B4      -0.810600
      7 N1           3.9060     0.6200    -0.0150 n2         1 0B4      -0.581900
      8 C6           1.8610     0.1520    -1.3840 c3         1 0B4      -0.178400
      9 C2           3.1650     0.9710    -1.2290 c3         1 0B4       0.187200
     10 C1           4.0490     0.6590    -2.4570 c3         1 0B4      -0.084100
     11 C7           2.8280     2.4570    -1.2920 cx         1 0B4      -0.146700
     12 C9           3.7900     3.5210    -0.8470 cx         1 0B4      -0.101400
     13 C8           2.5150     3.3030    -0.0750 cx         1 0B4      -0.052400
     14 C10          1.4160     4.2780    -0.1240 ca         1 0B4      -0.078300
     15 C15          0.6080     4.4580     1.0080 ca         1 0B4      -0.123500
     16 C14         -0.4390     5.3770     0.9890 ca         1 0B4      -0.118500
     17 C13         -0.6920     6.1280    -0.1590 ca         1 0B4      -0.112000
     18 C12          0.1080     5.9560    -1.2890 ca         1 0B4      -0.118500
     19 C11          1.1570     5.0370    -1.2720 ca         1 0B4      -0.123500
     20 H1           1.6940    -1.4330     2.8370 h1         1 0B4       0.071700
     21 H2           0.1820    -0.6290     2.2170 h1         1 0B4       0.071700
     22 H3           1.4450     0.3760     3.0640 h1         1 0B4       0.071700
     23 H5           3.7740     0.2630     3.0130 hn         1 0B4       0.477800
     24 H6           4.1110    -1.2450     2.3600 hn         1 0B4       0.477800
     25 H10          1.1490     0.7050    -2.0570 hc         1 0B4       0.115700
     26 H11          2.0870    -0.8370    -1.8710 hc         1 0B4       0.115700
     27 H12          3.4590     0.8840    -3.3780 hc         1 0B4       0.064700
     28 H13          4.9630     1.3000    -2.4470 hc         1 0B4       0.064700
     29 H14          4.3540    -0.4130    -2.4750 hc         1 0B4       0.064700
     30 H15          2.2370     2.6610    -2.2130 hc         1 0B4       0.110700
     31 H16          4.7520     3.2340    -0.3850 hc         1 0B4       0.088700
     32 H17          3.8930     4.4300    -1.4690 hc         1 0B4       0.088700
     33 H18          2.6070     2.8300     0.9250 hc         1 0B4       0.056700
     34 H19          0.8020     3.8760     1.9200 ha         1 0B4       0.123500
     35 H20         -1.0660     5.5120     1.8830 ha         1 0B4       0.143000
     36 H21         -1.5180     6.8540    -0.1730 ha         1 0B4       0.147000
     37 H22         -0.0860     6.5480    -2.1960 ha         1 0B4       0.143000
     38 H23          1.7850     4.9160    -2.1680 ha         1 0B4       0.123500
     39 H231         5.1080     0.0600     2.0130 hn         1 0B4       0.477800
@<TRIPOS>BOND
     1     1     2 2   
     2     2     3 1   
     3     2     8 1   
     4     3     4 1   
     5     3     5 1   
     6     4    20 1   
     7     4    21 1   
     8     4    22 1   
     9     5     6 1   
    10     5     7 2   
    11     6    23 1   
    12     6    24 1   
    13     6    39 1   
    14     7     9 1   
    15     8     9 1   
    16     8    25 1   
    17     8    26 1   
    18     9    10 1   
    19     9    11 1   
    20    10    27 1   
    21    10    28 1   
    22    10    29 1   
    23    11    12 1   
    24    11    13 1   
    25    11    30 1   
    26    12    13 1   
    27    12    31 1   
    28    12    32 1   
    29    13    14 1   
    30    13    33 1   
    31    14    15 ar  
    32    14    19 ar  
    33    15    16 ar  
    34    15    34 1   
    35    16    17 ar  
    36    16    35 1   
    37    17    18 ar  
    38    17    36 1   
    39    18    19 ar  
    40    18    37 1   
    41    19    38 1   
@<TRIPOS>SUBSTRUCTURE
     1 0B4         1 TEMP              0 ****  ****    0 ROOT
