@<TRIPOS>MOLECULE
0B4
   39    41     1     0     0
SMALL
bcc


@<TRIPOS>ATOM
      1 O            0.0000     0.0000     0.0000 o          1 0B4      -0.562500
      2 C5           1.2120     0.0000     0.0000 c          1 0B4       0.610500
      3 N3           1.8940     0.0000     1.1630 n          1 0B4      -0.060300
      4 C4           1.1700    -0.0120     2.4360 c3         1 0B4       0.046300
      5 C3           3.2740     0.0110     1.1550 c2         1 0B4       0.091800
      6 N2           3.9490     0.4090     2.2840 nz         1 0B4       0.185400
      7 N1           3.9470    -0.3460     0.1060 n2         1 0B4      -0.423900
      8 C6           1.9750    -0.0050    -1.3030 c3         1 0B4      -0.101400
      9 C2           3.2770    -0.7820    -1.1180 c3         1 0B4       0.144200
     10 C1           2.9680    -2.2770    -1.0130 c3         1 0B4      -0.020100
     11 C7           4.1910    -0.5340    -2.3200 cx         1 0B4      -0.142700
     12 C9           4.3540    -1.6730    -3.3290 cx         1 0B4      -0.069400
     13 C8           5.5020    -1.3190    -2.3830 cx         1 0B4      -0.014400
     14 C10          6.7020    -0.6230    -2.9740 ca         1 0B4      -0.074300
     15 C15          7.8400    -0.4390    -2.2110 ca         1 0B4      -0.101500
     16 C14          8.9390     0.2000    -2.7530 ca         1 0B4      -0.088500
     17 C13          8.9010     0.6540    -4.0580 ca         1 0B4      -0.087000
     18 C12          7.7630     0.4700    -4.8210 ca         1 0B4      -0.088500
     19 C11          6.6660    -0.1740    -4.2810 ca         1 0B4      -0.101500
     20 H1           1.6310    -0.7270     3.1070 h1         1 0B4       0.037033
     21 H2           0.1380    -0.2950     2.2620 h1         1 0B4       0.037033
     22 H3           1.2040     0.9750     2.8810 h1         1 0B4       0.037033
     23 H5           4.9030     0.6020     2.0520 hn         1 0B4       0.225800
     24 H6           3.9130    -0.3200     2.9690 hn         1 0B4       0.225800
     25 H10          1.3760    -0.5460    -2.0250 hc         1 0B4       0.076700
     26 H11          2.2400     1.0210    -1.5250 hc         1 0B4       0.076700
     27 H12          2.4280    -2.5960    -1.8960 hc         1 0B4       0.032700
     28 H13          3.8940    -2.8330    -0.9360 hc         1 0B4       0.032700
     29 H14          2.3620    -2.4600    -0.1340 hc         1 0B4       0.032700
     30 H15          4.2360     0.4600    -2.7480 hc         1 0B4       0.083700
     31 H16          3.8190    -2.5860    -3.0940 hc         1 0B4       0.066700
     32 H17          4.4860    -1.3690    -4.3600 hc         1 0B4       0.066700
     33 H18          5.6520    -2.0180    -1.5700 hc         1 0B4       0.059700
     34 H19          7.8690    -0.7950    -1.1880 ha         1 0B4       0.104000
     35 H20          9.8310     0.3450    -2.1550 ha         1 0B4       0.110000
     36 H21          9.7620     1.1570    -4.4820 ha         1 0B4       0.112000
     37 H22          7.7340     0.8240    -5.8440 ha         1 0B4       0.110000
     38 H23          5.7740    -0.3180    -4.8790 ha         1 0B4       0.104000
     39 H231         3.5200     1.2330     2.6570 hn         1 0B4       0.225800
@<TRIPOS>BOND
     1     1     2 2   
     2     2     3 1   
     3     2     8 1   
     4     3     4 1   
     5     3     5 1   
     6     4    20 1   
     7     4    21 1   
     8     4    22 1   
     9     5     6 1   
    10     5     7 2   
    11     6    23 1   
    12     6    24 1   
    13     6    39 1   
    14     7     9 1   
    15     8     9 1   
    16     8    25 1   
    17     8    26 1   
    18     9    10 1   
    19     9    11 1   
    20    10    27 1   
    21    10    28 1   
    22    10    29 1   
    23    11    12 1   
    24    11    13 1   
    25    11    30 1   
    26    12    13 1   
    27    12    31 1   
    28    12    32 1   
    29    13    14 1   
    30    13    33 1   
    31    14    15 ar  
    32    14    19 ar  
    33    15    16 ar  
    34    15    34 1   
    35    16    17 ar  
    36    16    35 1   
    37    17    18 ar  
    38    17    36 1   
    39    18    19 ar  
    40    18    37 1   
    41    19    38 1   
@<TRIPOS>SUBSTRUCTURE
     1 0B4         1 TEMP              0 ****  ****    0 ROOT
