@<TRIPOS>MOLECULE
0B5
   51    53     1     0     0
SMALL
bcc


@<TRIPOS>ATOM
      1 F4           0.2500     0.2600     0.0830 f          1 0B5      -0.134900
      2 C18          1.6050     0.2870     0.1480 ca         1 0B5       0.102900
      3 C7           2.2940     0.1910     1.3780 ca         1 0B5      -0.126300
      4 C1           1.5260     0.0410     2.6830 c3         1 0B5       0.188500
      5 N1           2.4130    -0.0070     3.8610 n2         1 0B5      -0.551900
      6 C6           2.5520     1.0520     4.5840 c2         1 0B5       0.655500
      7 N            3.3670     1.0580     5.8260 nz         1 0B5      -0.789600
      8 O            2.0160     2.3300     4.4550 os         1 0B5      -0.429400
      9 C3           1.3370     2.5050     3.1890 c3         1 0B5       0.051100
     10 C4           0.5100     3.8390     3.3320 c3         1 0B5       0.435600
     11 F1          -0.1870     4.0480     2.1600 f          1 0B5      -0.217300
     12 F2           1.3890     4.9050     3.3450 f          1 0B5      -0.217300
     13 C5          -0.4030     3.8350     4.5650 c3         1 0B5      -0.139100
     14 C2           0.5140     1.2510     2.8350 c3         1 0B5       0.114600
     15 F           -0.4300     0.9610     3.8010 f          1 0B5      -0.211300
     16 C            0.7270    -1.2760     2.6390 c3         1 0B5      -0.089100
     17 C17          2.3220     0.4130    -1.0580 ca         1 0B5      -0.118000
     18 C16          3.7050     0.4250    -1.0670 ca         1 0B5      -0.108000
     19 C9           4.4220     0.3030     0.1460 ca         1 0B5       0.083600
     20 C8           3.6920     0.1860     1.3530 ca         1 0B5      -0.167000
     21 N2           5.8200     0.2710     0.2060 ns         1 0B5      -0.463100
     22 C10          6.6970     0.6680    -0.8000 c          1 0B5       0.599600
     23 O2           6.3030     1.0960    -1.8990 o          1 0B5      -0.575100
     24 C11          8.1660     0.5510    -0.5280 ca         1 0B5       0.170500
     25 C15          9.0360     0.6310    -1.6490 ca         1 0B5       0.403900
     26 N4          10.3750     0.5430    -1.5320 nb         1 0B5      -0.695000
     27 C13         10.8470     0.3800    -0.2700 ca         1 0B5       0.564300
     28 C12          9.9720     0.3080     0.8750 ca         1 0B5       0.275900
     29 N3           8.6500     0.3920     0.7370 nb         1 0B5      -0.612000
     30 O1          12.1810     0.2820     0.0160 os         1 0B5      -0.462100
     31 C14         13.1240     0.2160    -1.0630 c3         1 0B5       0.367700
     32 F3          12.9950    -1.0420    -1.5720 f          1 0B5      -0.226300
     33 H1           4.0300     1.8430     5.7750 hn         1 0B5       0.486467
     34 H2           3.8740     0.1690     5.9340 hn         1 0B5       0.486467
     35 H3           2.1220     2.6620     2.3940 h1         1 0B5       0.116700
     36 H4          -1.2020     3.0670     4.4400 hc         1 0B5       0.079700
     37 H5           0.2040     3.6100     5.4720 hc         1 0B5       0.079700
     38 H6          -0.8760     4.8420     4.6760 hc         1 0B5       0.079700
     39 H7          -0.0180     1.4360     1.8550 h1         1 0B5       0.141700
     40 H8           0.1620    -1.4320     3.5890 hc         1 0B5       0.076033
     41 H9           1.4130    -2.1390     2.4690 hc         1 0B5       0.076033
     42 H10         -0.0040    -1.2170     1.7960 hc         1 0B5       0.076033
     43 H11          1.7600     0.4950    -2.0030 ha         1 0B5       0.174000
     44 H12          4.2360     0.5270    -2.0320 ha         1 0B5       0.197000
     45 H13          4.2600     0.0620     2.2880 ha         1 0B5       0.126000
     46 H14          6.2100    -0.0340     1.0710 hn         1 0B5       0.335500
     47 H15          8.6330     0.7750    -2.6720 h4         1 0B5       0.071100
     48 H16         10.3890     0.1810     1.8880 h4         1 0B5       0.056100
     49 H17         14.1140     0.3480    -0.5360 h2         1 0B5       0.088700
     50 H18         12.9410     1.0000    -1.8440 h2         1 0B5       0.088700
     51 HN3          2.7340     1.2000     6.6250 hn         1 0B5       0.486467
@<TRIPOS>BOND
     1     1     2 1   
     2     2     3 ar  
     3     2    17 ar  
     4     3     4 1   
     5     3    20 ar  
     6     4     5 1   
     7     4    14 1   
     8     4    16 1   
     9     5     6 2   
    10     6     7 1   
    11     6     8 1   
    12     7    33 1   
    13     7    34 1   
    14     7    51 1   
    15     8     9 1   
    16     9    10 1   
    17     9    14 1   
    18     9    35 1   
    19    10    11 1   
    20    10    12 1   
    21    10    13 1   
    22    13    36 1   
    23    13    37 1   
    24    13    38 1   
    25    14    15 1   
    26    14    39 1   
    27    16    40 1   
    28    16    41 1   
    29    16    42 1   
    30    17    18 ar  
    31    17    43 1   
    32    18    19 ar  
    33    18    44 1   
    34    19    20 ar  
    35    19    21 1   
    36    20    45 1   
    37    21    22 1   
    38    21    46 1   
    39    22    23 2   
    40    22    24 1   
    41    24    25 ar  
    42    24    29 ar  
    43    25    26 ar  
    44    25    47 1   
    45    26    27 ar  
    46    27    28 ar  
    47    27    30 1   
    48    28    29 ar  
    49    28    48 1   
    50    30    31 1   
    51    31    32 1   
    52    31    49 1   
    53    31    50 1   
@<TRIPOS>SUBSTRUCTURE
     1 0B5         1 TEMP              0 ****  ****    0 ROOT
