@<TRIPOS>MOLECULE
0B6
   44    46     1     0     0
SMALL
bcc


@<TRIPOS>ATOM
      1 F2           0.2900     0.6430     0.0920 f          1 0B6      -0.140900
      2 C19          1.6430     0.5450     0.0980 ca         1 0B6       0.106900
      3 C7           2.3660     0.2690     1.2790 ca         1 0B6      -0.110300
      4 C2           1.6320     0.0990     2.6060 c3         1 0B6       0.256700
      5 N2           2.5780    -0.0160     3.7410 n2         1 0B6      -0.549900
      6 C6           2.6200     0.9350     4.6090 c2         1 0B6       0.648500
      7 N1           3.5150     0.9030     5.7930 nz         1 0B6      -0.789600
      8 O1           1.9090     2.1330     4.6810 os         1 0B6      -0.351700
      9 C4           0.8340     2.1800     3.7680 c2         1 0B6       0.023900
     10 C5          -0.0220     3.3880     4.0390 c3         1 0B6       0.219100
     11 F1          -0.1000     3.6830     5.3830 f          1 0B6      -0.217300
     12 C3           0.6780     1.2600     2.8080 c2         1 0B6      -0.215200
     13 C1           0.8060    -1.2050     2.5370 c3         1 0B6      -0.091100
     14 C18          2.3220     0.7130    -1.1240 ca         1 0B6      -0.122000
     15 C17          3.6990     0.5900    -1.1970 ca         1 0B6      -0.108000
     16 C9           4.4420     0.2800    -0.0350 ca         1 0B6       0.074600
     17 C8           3.7520     0.1240     1.1900 ca         1 0B6      -0.157000
     18 N3           5.8320     0.0940    -0.0500 ns         1 0B6      -0.460100
     19 C10          6.7060     0.5620    -1.0230 c          1 0B6       0.581600
     20 O2           6.3240     1.1770    -2.0330 o          1 0B6      -0.569100
     21 C11          8.1780     0.2770    -0.8340 ca         1 0B6       0.358800
     22 C15          8.9840     0.3340    -1.9870 ca         1 0B6      -0.181300
     23 C14         10.3570     0.0970    -1.8610 ca         1 0B6      -0.058000
     24 C13         10.8770    -0.1840    -0.5930 ca         1 0B6      -0.092300
     25 C12          9.9870    -0.2160     0.5110 ca         1 0B6       0.430200
     26 N4           8.6710     0.0060     0.4020 nb         1 0B6      -0.673000
     27 C16         12.2590    -0.4320    -0.3990 cg         1 0B6       0.213800
     28 N5          13.3930    -0.6350    -0.2370 n1         1 0B6      -0.309800
     29 H1           3.9660    -0.0170     5.8850 hn         1 0B6       0.486800
     30 H2           2.9510     1.1080     6.6290 hn         1 0B6       0.486800
     31 H3           0.4240     4.2710     3.4960 h1         1 0B6       0.088200
     32 H4          -1.0570     3.1850     3.6420 h1         1 0B6       0.088200
     33 H5          -0.1780     1.3040     2.1140 ha         1 0B6       0.205000
     34 H6           0.1980    -1.3390     3.4630 hc         1 0B6       0.071033
     35 H7           1.4760    -2.0870     2.4020 hc         1 0B6       0.071033
     36 H8           0.1170    -1.1360     1.6590 hc         1 0B6       0.071033
     37 H9           1.7370     0.9380    -2.0320 ha         1 0B6       0.171000
     38 H10          4.2030     0.7350    -2.1700 ha         1 0B6       0.192000
     39 H11          4.3380    -0.1440     2.0830 ha         1 0B6       0.132000
     40 H12          6.2200    -0.3420     0.7590 hn         1 0B6       0.337500
     41 H13          8.5330     0.5730    -2.9640 ha         1 0B6       0.184000
     42 H14         11.0130     0.1340    -2.7460 ha         1 0B6       0.170000
     43 H15         10.3610    -0.4320     1.5300 h4         1 0B6       0.041100
     44 H131         4.2280     1.6350     5.6780 hn         1 0B6       0.486800
@<TRIPOS>BOND
     1     1     2 1   
     2     2     3 ar  
     3     2    14 ar  
     4     3     4 1   
     5     3    17 ar  
     6     4     5 1   
     7     4    12 1   
     8     4    13 1   
     9     5     6 2   
    10     6     7 1   
    11     6     8 1   
    12     7    29 1   
    13     7    30 1   
    14     7    44 1   
    15     8     9 1   
    16     9    10 1   
    17     9    12 2   
    18    10    11 1   
    19    10    31 1   
    20    10    32 1   
    21    12    33 1   
    22    13    34 1   
    23    13    35 1   
    24    13    36 1   
    25    14    15 ar  
    26    14    37 1   
    27    15    16 ar  
    28    15    38 1   
    29    16    17 ar  
    30    16    18 1   
    31    17    39 1   
    32    18    19 1   
    33    18    40 1   
    34    19    20 2   
    35    19    21 1   
    36    21    22 ar  
    37    21    26 ar  
    38    22    23 ar  
    39    22    41 1   
    40    23    24 ar  
    41    23    42 1   
    42    24    25 ar  
    43    24    27 1   
    44    25    26 ar  
    45    25    43 1   
    46    27    28 3   
@<TRIPOS>SUBSTRUCTURE
     1 0B6         1 TEMP              0 ****  ****    0 ROOT
