@<TRIPOS>MOLECULE
0B6
   44    46     1     0     0
SMALL
bcc


@<TRIPOS>ATOM
      1 F2           0.0000     0.0000     0.0000 f          1 0B6      -0.128900
      2 C19          1.3510     0.0000     0.0000 ca         1 0B6       0.129900
      3 C7           2.0420     0.0000     1.2000 ca         1 0B6      -0.138300
      4 C2           1.2880     0.0010     2.5050 c3         1 0B6       0.221700
      5 N2           2.2380     0.0010     3.6130 n2         1 0B6      -0.469900
      6 C6           2.0760     0.7540     4.6520 c2         1 0B6       0.365500
      7 N1           3.0070     0.7040     5.6620 nz         1 0B6      -0.101600
      8 O1           1.0250     1.5850     4.7750 os         1 0B6      -0.304700
      9 C4           0.3230     1.9290     3.6710 c2         1 0B6       0.123900
     10 C5          -0.5690     3.1440     3.7060 c3         1 0B6      -0.399900
     11 F1          -1.8170     2.7910     4.2300 f          1 0B6       0.024700
     12 C3           0.4080     1.2190     2.5700 c2         1 0B6      -0.250200
     13 C1           0.4160    -1.2540     2.5860 c3         1 0B6       0.006900
     14 C18          2.0420    -0.0080    -1.2000 ca         1 0B6      -0.131000
     15 C17          3.4230    -0.0080    -1.2020 ca         1 0B6      -0.093000
     16 C9           4.1190    -0.0030    -0.0010 ca         1 0B6      -0.029400
     17 C8           3.4230    -0.0020     1.2020 ca         1 0B6      -0.098000
     18 N3           5.5180    -0.0050    -0.0010 ns         1 0B6      -0.074100
     19 C10          6.1920     0.6310    -0.9800 c          1 0B6       0.479600
     20 O2           5.5890     1.2850    -1.8080 o          1 0B6      -0.620100
     21 C11          7.6690     0.5310    -1.0470 ca         1 0B6       0.265800
     22 C15          8.3570     1.1920    -2.0630 ca         1 0B6      -0.180300
     23 C14          9.7360     1.0940    -2.1180 ca         1 0B6      -0.031000
     24 C13         10.3880     0.3290    -1.1440 ca         1 0B6      -0.014300
     25 C12          9.6280    -0.3040    -0.1550 ca         1 0B6       0.418200
     26 N4           8.3200    -0.1820    -0.1340 nb         1 0B6      -0.556000
     27 C16         11.8140     0.1980    -1.1590 cg         1 0B6       0.201800
     28 N5          12.9440     0.0840    -1.1880 n1         1 0B6      -0.324800
     29 H1           2.8940     1.5250     6.2230 hn         1 0B6       0.332467
     30 H2           3.6540     0.1410     5.1460 hn         1 0B6       0.332467
     31 H3          -0.1960     3.7130     2.8620 h1         1 0B6       0.255700
     32 H4          -1.6010     3.1670     3.3770 h1         1 0B6       0.255700
     33 H5          -0.5930     1.4020     2.1990 ha         1 0B6       0.156000
     34 H6           0.9590    -1.7140     3.4020 hc         1 0B6       0.045033
     35 H7           0.4160    -1.5740     1.5510 hc         1 0B6       0.045033
     36 H8          -0.4770    -0.6570     2.7310 hc         1 0B6       0.045033
     37 H9           1.8090     0.0290    -2.2580 ha         1 0B6       0.146000
     38 H10          3.5940     0.2840    -2.2310 ha         1 0B6       0.162000
     39 H11          3.8540     0.2010     2.1750 ha         1 0B6       0.105000
     40 H12          6.1360     0.6240     0.4730 hn         1 0B6       0.191500
     41 H13          7.5670     1.8580    -2.3900 ha         1 0B6       0.164000
     42 H14         10.0260     1.7470    -2.9330 ha         1 0B6       0.139000
     43 H15         10.1000    -0.7640     0.7050 h4         1 0B6      -0.003900
     44 H131         2.2450     0.9150     6.2750 hn         1 0B6       0.332467
@<TRIPOS>BOND
     1     1     2 1   
     2     2     3 ar  
     3     2    14 ar  
     4     3     4 1   
     5     3    17 ar  
     6     4     5 1   
     7     4    12 1   
     8     4    13 1   
     9     5     6 2   
    10     6     7 1   
    11     6     8 1   
    12     7    29 1   
    13     7    30 1   
    14     7    44 1   
    15     8     9 1   
    16     9    10 1   
    17     9    12 2   
    18    10    11 1   
    19    10    31 1   
    20    10    32 1   
    21    12    33 1   
    22    13    34 1   
    23    13    35 1   
    24    13    36 1   
    25    14    15 ar  
    26    14    37 1   
    27    15    16 ar  
    28    15    38 1   
    29    16    17 ar  
    30    16    18 1   
    31    17    39 1   
    32    18    19 1   
    33    18    40 1   
    34    19    20 2   
    35    19    21 1   
    36    21    22 ar  
    37    21    26 ar  
    38    22    23 ar  
    39    22    41 1   
    40    23    24 ar  
    41    23    42 1   
    42    24    25 ar  
    43    24    27 1   
    44    25    26 ar  
    45    25    43 1   
    46    27    28 3   
@<TRIPOS>SUBSTRUCTURE
     1 0B6         1 TEMP              0 ****  ****    0 ROOT
