@<TRIPOS>MOLECULE
molecule
   46    49     1     0     0
SMALL
bcc


@<TRIPOS>ATOM
      1 C1           0.0000     0.0000     0.0000 c3         1 0BB       0.112000
      2 O1           0.2900    -0.0300     2.8970 o          1 0BB      -0.656500
      3 C3           4.7400     0.0000     1.2750 ca         1 0BB      -0.127000
      4 C4           5.2710     0.0000     0.0000 ca         1 0BB      -0.141000
      5 C5           4.4380    -0.0030    -1.1040 ca         1 0BB      -0.130000
      6 C6           3.0650    -0.0070    -0.9410 ca         1 0BB      -0.119000
      7 C7           2.5230    -0.0070     0.3350 ca         1 0BB       0.015600
      8 C8           3.3640    -0.0100     1.4500 ca         1 0BB      -0.017400
      9 N9           2.5430    -0.0130     2.5740 n          1 0BB      -0.370000
     10 C10          1.2610    -0.0240     2.1630 c          1 0BB       0.795500
     11 N11          1.2160    -0.0110     0.8170 n          1 0BB      -0.346000
     12 C12         -0.4210     1.4460    -0.2700 c3         1 0BB      -0.086400
     13 C13         -1.6910     1.4570    -1.1220 c3         1 0BB      -0.183400
     14 C17          2.9970    -0.0070     3.9670 c3         1 0BB       0.193200
     15 C18          3.2270     1.4140     4.4140 cc         1 0BB      -0.128400
     16 C19          3.8160     1.7430     5.7020 ca         1 0BB      -0.063800
     17 C20          3.9270     3.1240     5.8850 ca         1 0BB      -0.016100
     18 S21          3.3040     3.9610     4.4690 ss         1 0BB      -0.090500
     19 C22          2.9160     2.4530     3.6640 cd         1 0BB      -0.037400
     20 C23          4.2620     0.8820     6.7280 ca         1 0BB      -0.038300
     21 C24          4.7900     1.3920     7.8750 ca         1 0BB      -0.137000
     22 C25          4.8980     2.7640     8.0540 ca         1 0BB      -0.136000
     23 C26          4.4740     3.6260     7.0700 ca         1 0BB      -0.101000
     24 C34          4.1530    -0.6100     6.5540 c3         1 0BB      -0.053800
     25 C39         -2.1060     2.8820    -1.3880 c          1 0BB       0.893600
     26 O40         -1.4530     3.7940    -0.9410 o          1 0BB      -0.851300
     27 O41         -3.2000     3.1360    -2.1210 o          1 0BB      -0.851300
     28 H1          -0.7940    -0.5150     0.5270 h1         1 0BB       0.055700
     29 H1A          0.1930    -0.5010    -0.9410 h1         1 0BB       0.055700
     30 H3           5.3960     0.0020     2.1370 ha         1 0BB       0.127000
     31 H4           6.3460     0.0030    -0.1360 ha         1 0BB       0.125000
     32 H5           4.8620    -0.0030    -2.1010 ha         1 0BB       0.129000
     33 H6           2.4150    -0.0090    -1.8070 ha         1 0BB       0.145000
     34 H12         -0.6140     1.9480     0.6710 hc         1 0BB       0.059200
     35 H12A         0.3730     1.9610    -0.7970 hc         1 0BB       0.059200
     36 H13         -1.4980     0.9550    -2.0630 hc         1 0BB       0.028700
     37 H13A        -2.4840     0.9420    -0.5950 hc         1 0BB       0.028700
     38 H17          2.2430    -0.4650     4.5950 h1         1 0BB       0.070700
     39 H17A         3.9220    -0.5650     4.0480 h1         1 0BB       0.070700
     40 H22          2.4770     2.3830     2.6760 h4         1 0BB       0.197000
     41 H24          5.1730     0.8860     8.7530 ha         1 0BB       0.129000
     42 H25          5.3140     3.1950     8.9560 ha         1 0BB       0.125000
     43 H26          4.5530     4.6990     7.1960 ha         1 0BB       0.130000
     44 H34          4.7570    -0.9200     5.7100 hc         1 0BB       0.044700
     45 H34A         4.5040    -1.1050     7.4510 hc         1 0BB       0.044700
     46 H34B         3.1180    -0.8770     6.3740 hc         1 0BB       0.044700
@<TRIPOS>BOND
     1    11     1 1   
     2     1    12 1   
     3     1    28 1   
     4     1    29 1   
     5     2    10 2   
     6     8     3 ar  
     7     3     4 ar  
     8     3    30 1   
     9     4     5 ar  
    10     4    31 1   
    11     6     5 ar  
    12     5    32 1   
    13     7     6 ar  
    14     6    33 1   
    15     8     7 ar  
    16    11     7 1   
    17     9     8 1   
    18    14     9 1   
    19     9    10 1   
    20    10    11 1   
    21    13    12 1   
    22    12    34 1   
    23    12    35 1   
    24    13    25 1   
    25    13    36 1   
    26    13    37 1   
    27    15    14 1   
    28    14    38 1   
    29    14    39 1   
    30    16    15 1   
    31    15    19 2   
    32    20    16 ar  
    33    17    16 ar  
    34    23    17 ar  
    35    17    18 1   
    36    18    19 1   
    37    19    40 1   
    38    21    20 ar  
    39    24    20 1   
    40    22    21 ar  
    41    21    41 1   
    42    22    23 ar  
    43    22    42 1   
    44    23    43 1   
    45    24    44 1   
    46    24    45 1   
    47    24    46 1   
    48    26    25 1   
    49    25    27 1   
@<TRIPOS>SUBSTRUCTURE
     1 0BB         1 TEMP              0 ****  ****    0 ROOT
