@<TRIPOS>MOLECULE
0BB
   46    49     1     0     0
SMALL
bcc


@<TRIPOS>ATOM
      1 C1          -0.0740     0.0700     0.4680 c3         1 0BB       0.062000
      2 O1           0.4160     1.4410     3.0890 o          1 0BB      -0.601500
      3 C3           4.6910     0.0510     1.3320 ca         1 0BB      -0.123000
      4 C4           5.0810    -0.3430     0.0470 ca         1 0BB      -0.136000
      5 C5           4.1650    -0.4200    -0.9980 ca         1 0BB      -0.134000
      6 C6           2.8150    -0.1050    -0.8110 ca         1 0BB      -0.109000
      7 C7           2.4030     0.2990     0.4540 ca         1 0BB      -0.018400
      8 C8           3.3560     0.3750     1.5410 ca         1 0BB      -0.015400
      9 N9           2.6940     0.8710     2.6950 n          1 0BB      -0.330000
     10 C10          1.2930     1.0060     2.3290 c          1 0BB       0.752500
     11 N11          1.1300     0.7510     0.9080 n          1 0BB      -0.299000
     12 C12         -0.1950    -1.3920     0.8880 c3         1 0BB      -0.097400
     13 C13         -1.3470    -2.0800     0.2020 c3         1 0BB      -0.197400
     14 C17          3.0650     0.4730     4.0270 c3         1 0BB       0.155200
     15 C18          2.9230    -0.9620     4.4060 cc         1 0BB      -0.149400
     16 C19          3.5230    -1.5300     5.5960 ca         1 0BB      -0.052800
     17 C20          3.2020    -2.9200     5.6850 ca         1 0BB      -0.123100
     18 S21          2.2310    -3.4150     4.4090 ss         1 0BB       0.163500
     19 C22          2.2040    -1.9040     3.7100 cd         1 0BB      -0.143400
     20 C23          4.3130    -0.9440     6.6090 ca         1 0BB      -0.048300
     21 C24          4.7700    -1.7450     7.6500 ca         1 0BB      -0.144000
     22 C25          4.4590    -3.1130     7.7210 ca         1 0BB      -0.137000
     23 C26          3.6760    -3.7020     6.7470 ca         1 0BB      -0.093000
     24 C34          4.6680     0.4950     6.6110 c3         1 0BB      -0.052800
     25 C39         -1.3930    -3.5750     0.5770 c          1 0BB       0.912600
     26 O40         -2.2900    -4.2790     0.0340 o          1 0BB      -0.848800
     27 O41         -0.5380    -4.0210     1.3970 o          1 0BB      -0.848800
     28 H1          -0.9440     0.6550     0.8810 h1         1 0BB       0.062200
     29 H1A         -0.0900     0.1440    -0.6560 h1         1 0BB       0.062200
     30 H3           5.4210     0.0940     2.1510 ha         1 0BB       0.136000
     31 H4           6.1340    -0.6040    -0.1320 ha         1 0BB       0.124000
     32 H5           4.5010    -0.7440    -1.9940 ha         1 0BB       0.127000
     33 H6           2.0980    -0.1860    -1.6400 ha         1 0BB       0.146000
     34 H12          0.7480    -1.9510     0.6450 hc         1 0BB       0.055700
     35 H12A        -0.3440    -1.4600     1.9980 hc         1 0BB       0.055700
     36 H13         -2.3180    -1.6110     0.4970 hc         1 0BB       0.026200
     37 H13A        -1.2510    -1.9980    -0.9090 hc         1 0BB       0.026200
     38 H17          4.1470     0.7740     4.1490 h1         1 0BB       0.070700
     39 H17A         2.4260     1.0910     4.7290 h1         1 0BB       0.070700
     40 H22          1.6430    -1.7340     2.7840 h4         1 0BB       0.200000
     41 H24          5.3870    -1.3020     8.4460 ha         1 0BB       0.119000
     42 H25          4.8410    -3.7100     8.5610 ha         1 0BB       0.122000
     43 H26          3.4180    -4.7700     6.7970 ha         1 0BB       0.133000
     44 H34          5.4150     0.7140     5.8070 hc         1 0BB       0.041367
     45 H34A         3.7620     1.1280     6.4440 hc         1 0BB       0.041367
     46 H34B         5.1220     0.7930     7.5890 hc         1 0BB       0.041367
@<TRIPOS>BOND
     1     1    11 1   
     2     1    12 1   
     3     1    28 1   
     4     1    29 1   
     5     2    10 2   
     6     3     4 ar  
     7     3     8 ar  
     8     3    30 1   
     9     4     5 ar  
    10     4    31 1   
    11     5     6 ar  
    12     5    32 1   
    13     6     7 ar  
    14     6    33 1   
    15     7     8 ar  
    16     7    11 1   
    17     8     9 1   
    18     9    10 1   
    19     9    14 1   
    20    10    11 1   
    21    12    13 1   
    22    12    34 1   
    23    12    35 1   
    24    13    25 1   
    25    13    36 1   
    26    13    37 1   
    27    14    15 1   
    28    14    38 1   
    29    14    39 1   
    30    15    16 1   
    31    15    19 2   
    32    16    17 ar  
    33    16    20 ar  
    34    17    18 1   
    35    17    23 ar  
    36    18    19 1   
    37    19    40 1   
    38    20    21 ar  
    39    20    24 1   
    40    21    22 ar  
    41    21    41 1   
    42    22    23 ar  
    43    22    42 1   
    44    23    43 1   
    45    24    44 1   
    46    24    45 1   
    47    24    46 1   
    48    25    26 1   
    49    25    27 1   
@<TRIPOS>SUBSTRUCTURE
     1 0BB         1 TEMP              0 ****  ****    0 ROOT
