@<TRIPOS>MOLECULE
0BC
   49    52     1     0     0
SMALL
bcc


@<TRIPOS>ATOM
      1 CAA          0.0000     0.0000     0.0000 c3         1 0BC      -0.001100
      2 CAB          8.3780     0.0310     1.5430 c3         1 0BC      -0.092100
      3 CAE          5.5090     0.0180     0.9710 ca         1 0BC      -0.009000
      4 CAF          4.1670     0.0100     0.6600 ca         1 0BC      -0.269000
      5 CAG         -0.1370     2.6250    11.9570 cc         1 0BC       0.460300
      6 CAH          1.7620     2.4300    10.4000 cc         1 0BC      -0.128400
      7 CAI          2.0550     0.9460     7.4820 ca         1 0BC      -0.001000
      8 CAJ          0.5980    -0.2760     5.9920 ca         1 0BC      -0.061000
      9 CAK         -0.1580     0.3160     8.2040 ca         1 0BC      -0.064000
     10 CAL          4.9610    -0.1540     3.3250 ca         1 0BC       0.016000
     11 CAM          1.5300     0.0000     0.0000 c3         1 0BC       0.220400
     12 CAW          2.8780     0.3450     5.2120 c          1 0BC       0.583700
     13 CAX          5.9180    -0.0670     2.3070 ca         1 0BC      -0.238600
     14 CAY          1.8240     0.3380     6.2490 ca         1 0BC      -0.159600
     15 CAZ          1.0630     0.9350     8.4580 ca         1 0BC      -0.113500
     16 CBA         -0.3930    -0.2810     6.9680 ca         1 0BC      -0.129500
     17 CBB          0.6070     1.8650     9.9980 cd         1 0BC       0.382800
     18 CBC          3.6170    -0.1560     3.0050 ca         1 0BC      -0.179400
     19 CBD          3.2170    -0.0770     1.6690 ca         1 0BC       0.209100
     20 CBE         -1.6970    -0.9400     6.6980 cc         1 0BC       0.572500
     21 NAN         -0.3880     1.9910    10.8630 nd         1 0BC      -0.519000
     22 NAO         -3.2590    -1.9830     5.7440 na         1 0BC       0.689900
     23 NAP         -2.0580    -1.5420     5.5830 nd         1 0BC      -0.712800
     24 NAQ         -2.7330    -1.0420     7.5430 nc         1 0BC      -0.334000
     25 NAS         -3.6680    -1.6830     6.9270 nd         1 0BC      -0.371800
     26 OAC          7.7020    -0.1370     3.7980 o          1 0BC      -0.560100
     27 OAD          3.9470     0.8800     5.4350 o          1 0BC      -0.636100
     28 OAT          2.0060     0.0000     1.3460 os         1 0BC      -0.302900
     29 SAU          1.4890     3.1490    11.9850 ss         1 0BC      -0.323300
     30 H1          -0.3610     0.8830     0.5130 hc         1 0BC       0.014033
     31 H2          -0.3610    -0.8860     0.5090 hc         1 0BC       0.014033
     32 H3          -0.3610     0.0020    -1.0210 hc         1 0BC       0.014033
     33 H4           8.2680    -0.8120     0.8710 hc         1 0BC       0.023367
     34 H5           8.2180     0.9520     0.9960 hc         1 0BC       0.023367
     35 H6           9.3770     0.0290     1.9640 hc         1 0BC       0.023367
     36 H7           6.2480     0.0860     0.1820 ha         1 0BC       0.104000
     37 H8           3.8530     0.0740    -0.3740 ha         1 0BC       0.123000
     38 H10          2.7230     2.3400     9.9070 h4         1 0BC       0.167000
     39 H11          3.0060     1.4250     7.6810 ha         1 0BC       0.131000
     40 H12          0.4160    -0.7440     5.0330 ha         1 0BC       0.119000
     41 H13         -0.9310     0.3100     8.9640 ha         1 0BC       0.149000
     42 H14          5.2730    -0.2170     4.3600 ha         1 0BC       0.166000
     43 H15          1.8910    -0.8850    -0.5110 h1         1 0BC       0.004700
     44 H16          1.8910     0.8850    -0.5110 h1         1 0BC       0.004700
     45 H17         -3.7890    -2.4820     5.0580 hn         1 0BC       0.176700
     46 NAR          2.6550    -0.2430     4.0200 ns         1 0BC      -0.018100
     47 CAV          7.3490    -0.0640     2.6400 c          1 0BC       0.629700
     48 H9          -0.8570     2.8010    12.7470 h5         1 0BC       0.026100
     49 H18          1.8220    -0.7790     3.8750 hn         1 0BC       0.176500
@<TRIPOS>BOND
     1     1    11 1   
     2     1    30 1   
     3     1    31 1   
     4     1    32 1   
     5     2    33 1   
     6     2    34 1   
     7     2    35 1   
     8     2    47 1   
     9     3     4 ar  
    10     3    13 ar  
    11     3    36 1   
    12     4    19 ar  
    13     4    37 1   
    14     5    21 2   
    15     5    29 1   
    16     5    48 1   
    17     6    17 2   
    18     6    29 1   
    19     6    38 1   
    20     7    14 ar  
    21     7    15 ar  
    22     7    39 1   
    23     8    14 ar  
    24     8    16 ar  
    25     8    40 1   
    26     9    15 ar  
    27     9    16 ar  
    28     9    41 1   
    29    10    13 ar  
    30    10    18 ar  
    31    10    42 1   
    32    11    28 1   
    33    11    43 1   
    34    11    44 1   
    35    12    14 1   
    36    12    27 2   
    37    12    46 1   
    38    13    47 1   
    39    15    17 1   
    40    16    20 1   
    41    17    21 1   
    42    18    19 ar  
    43    18    46 1   
    44    19    28 1   
    45    20    23 2   
    46    20    24 1   
    47    22    23 1   
    48    22    25 1   
    49    22    45 1   
    50    24    25 2   
    51    26    47 2   
    52    46    49 1   
@<TRIPOS>SUBSTRUCTURE
     1 0BC         1 TEMP              0 ****  ****    0 ROOT
