@<TRIPOS>MOLECULE
0BC
   49    52     1     0     0
SMALL
bcc


@<TRIPOS>ATOM
      1 CAA          0.2160     1.0880     0.3070 c3         1 0BC      -0.102100
      2 CAB          8.0600    -1.9120     2.9750 c3         1 0BC      -0.199100
      3 CAE          5.4930    -0.9840     0.3030 ca         1 0BC      -0.060000
      4 CAF          4.1910    -0.5030     0.2020 ca         1 0BC      -0.201000
      5 CAG         -0.4570    -2.4150    10.5940 cc         1 0BC       0.368300
      6 CAH          1.7110    -2.5010     9.5580 cc         1 0BC      -0.242400
      7 CAI          2.1890    -0.8690     7.0900 ca         1 0BC      -0.054000
      8 CAJ          2.0860     1.3610     6.1390 ca         1 0BC      -0.070000
      9 CAK          0.7740     0.8140     8.1130 ca         1 0BC      -0.038000
     10 CAL          5.3900    -0.7950     2.7150 ca         1 0BC      -0.087000
     11 CAM          1.5940     0.5250     0.0460 c3         1 0BC       0.133400
     12 CAW          3.5580    -0.4010     5.0820 c          1 0BC       0.680700
     13 CAX          6.0960    -1.1350     1.5550 ca         1 0BC      -0.188600
     14 CAY          2.5790     0.0540     6.1150 ca         1 0BC      -0.156600
     15 CAZ          1.2850    -0.4920     8.0910 ca         1 0BC      -0.126500
     16 CBA          1.1810     1.7390     7.1410 ca         1 0BC      -0.132500
     17 CBB          0.8920    -1.4630     9.1070 cd         1 0BC       0.381800
     18 CBC          4.0720    -0.3110     2.6480 ca         1 0BC       0.025600
     19 CBD          3.4750    -0.1700     1.3530 ca         1 0BC       0.115100
     20 CBE          0.6650     3.0990     7.1710 cc         1 0BC       0.542500
     21 NAN         -0.3660    -1.4230     9.7190 nd         1 0BC      -0.615000
     22 NAO          0.0980     5.0850     6.7000 na         1 0BC       0.099900
     23 NAP          0.6850     4.0180     6.1520 nd         1 0BC      -0.489800
     24 NAQ          0.0350     3.7100     8.3120 nc         1 0BC      -0.359000
     25 NAS         -0.2830     4.8900     7.9800 nd         1 0BC      -0.143800
     26 OAC          8.1330    -1.8720     0.5910 o          1 0BC      -0.545100
     27 OAD          4.5060    -1.1510     5.3870 o          1 0BC      -0.596100
     28 OAT          2.1790     0.3080     1.3390 os         1 0BC      -0.347900
     29 SAU          0.9290    -3.4080    10.7190 ss         1 0BC      -0.068300
     30 H1           0.2850     2.0510     0.8660 hc         1 0BC       0.051033
     31 H2          -0.2930     1.2670    -0.6700 hc         1 0BC       0.051033
     32 H3          -0.3910     0.3730     0.9120 hc         1 0BC       0.051033
     33 H4           8.1430    -0.9530     3.5420 hc         1 0BC       0.067367
     34 H5           7.4050    -2.6140     3.5470 hc         1 0BC       0.067367
     35 H6           9.0780    -2.3630     2.8800 hc         1 0BC       0.067367
     36 H7           6.0590    -1.2500    -0.6050 ha         1 0BC       0.159000
     37 H8           3.7360    -0.3940    -0.7930 ha         1 0BC       0.143000
     38 H10          2.7260    -2.6920     9.2140 h4         1 0BC       0.189000
     39 H11          2.6030    -1.8910     7.0630 ha         1 0BC       0.158000
     40 H12          2.4170     2.0960     5.3900 ha         1 0BC       0.155000
     41 H13          0.0570     1.1080     8.8970 ha         1 0BC       0.177000
     42 H14          5.8720    -0.9150     3.7010 ha         1 0BC       0.175000
     43 H15          2.2270     1.2480    -0.5320 h1         1 0BC       0.043200
     44 H16          1.5370    -0.4530    -0.5010 h1         1 0BC       0.043200
     45 H17         -0.0390     5.9390     6.1970 hn         1 0BC       0.353700
     46 NAR          3.3470     0.0650     3.7930 ns         1 0BC      -0.455100
     47 CAV          7.4790    -1.6540     1.6210 c          1 0BC       0.581700
     48 H9          -1.3630    -2.5710    11.1870 h5         1 0BC       0.058100
     49 H18          2.4930     0.5500     3.6140 hn         1 0BC       0.335500
@<TRIPOS>BOND
     1     1    11 1   
     2     1    30 1   
     3     1    31 1   
     4     1    32 1   
     5     2    33 1   
     6     2    34 1   
     7     2    35 1   
     8     2    47 1   
     9     3     4 ar  
    10     3    13 ar  
    11     3    36 1   
    12     4    19 ar  
    13     4    37 1   
    14     5    21 2   
    15     5    29 1   
    16     5    48 1   
    17     6    17 2   
    18     6    29 1   
    19     6    38 1   
    20     7    14 ar  
    21     7    15 ar  
    22     7    39 1   
    23     8    14 ar  
    24     8    16 ar  
    25     8    40 1   
    26     9    15 ar  
    27     9    16 ar  
    28     9    41 1   
    29    10    13 ar  
    30    10    18 ar  
    31    10    42 1   
    32    11    28 1   
    33    11    43 1   
    34    11    44 1   
    35    12    14 1   
    36    12    27 2   
    37    12    46 1   
    38    13    47 1   
    39    15    17 1   
    40    16    20 1   
    41    17    21 1   
    42    18    19 ar  
    43    18    46 1   
    44    19    28 1   
    45    20    23 2   
    46    20    24 1   
    47    22    23 1   
    48    22    25 1   
    49    22    45 1   
    50    24    25 2   
    51    26    47 2   
    52    46    49 1   
@<TRIPOS>SUBSTRUCTURE
     1 0BC         1 TEMP              0 ****  ****    0 ROOT
