@<TRIPOS>MOLECULE
molecule
   49    52     1     0     0
SMALL
bcc


@<TRIPOS>ATOM
      1 CAA          0.0000     0.0000     0.0000 c3         1 0BC      -0.095100
      2 CAB          8.3780     0.0310     1.5430 c3         1 0BC      -0.191100
      3 CAE          5.5090     0.0180     0.9710 ca         1 0BC      -0.047000
      4 CAF          4.1670     0.0100     0.6600 ca         1 0BC      -0.277000
      5 CAG         -0.1370     2.6250    11.9570 cc         1 0BC       0.455300
      6 CAH          1.7620     2.4300    10.4000 cc         1 0BC      -0.184400
      7 CAI          2.0550     0.9460     7.4820 ca         1 0BC      -0.034000
      8 CAJ          0.5980    -0.2760     5.9920 ca         1 0BC      -0.078000
      9 CAK         -0.1580     0.3160     8.2040 ca         1 0BC      -0.066000
     10 CAL          4.9610    -0.1540     3.3250 ca         1 0BC      -0.017000
     11 CAM          1.5300     0.0000     0.0000 c3         1 0BC       0.156400
     12 CAW          2.8780     0.3450     5.2120 c          1 0BC       0.678700
     13 CAX          5.9180    -0.0670     2.3070 ca         1 0BC      -0.226600
     14 CAY          1.8240     0.3380     6.2490 ca         1 0BC      -0.146600
     15 CAZ          1.0630     0.9350     8.4580 ca         1 0BC      -0.114500
     16 CBA         -0.3930    -0.2810     6.9680 ca         1 0BC      -0.125500
     17 CBB          0.6070     1.8650     9.9980 cd         1 0BC       0.417800
     18 CBC          3.6170    -0.1560     3.0050 ca         1 0BC      -0.022400
     19 CBD          3.2170    -0.0770     1.6690 ca         1 0BC       0.197100
     20 CBE         -1.6970    -0.9400     6.6980 cc         1 0BC       0.574500
     21 NAN         -0.3880     1.9910    10.8630 nd         1 0BC      -0.664000
     22 NAO         -3.2590    -1.9830     5.7440 na         1 0BC       0.196900
     23 NAP         -2.0580    -1.5420     5.5830 nd         1 0BC      -0.576800
     24 NAQ         -2.7330    -1.0420     7.5430 nc         1 0BC      -0.373000
     25 NAS         -3.6680    -1.6830     6.9270 nd         1 0BC      -0.194800
     26 OAC          7.7020    -0.1370     3.7980 o          1 0BC      -0.529100
     27 OAD          3.9470     0.8800     5.4350 o          1 0BC      -0.593100
     28 OAT          2.0060     0.0000     1.3460 os         1 0BC      -0.330900
     29 SAU          1.4890     3.1490    11.9850 ss         1 0BC      -0.230300
     30 H1          -0.3610     0.8830     0.5130 hc         1 0BC       0.051700
     31 H2          -0.3610    -0.8860     0.5090 hc         1 0BC       0.051700
     32 H3          -0.3610     0.0020    -1.0210 hc         1 0BC       0.051700
     33 H4           8.2680    -0.8120     0.8710 hc         1 0BC       0.058700
     34 H5           8.2180     0.9520     0.9960 hc         1 0BC       0.058700
     35 H6           9.3770     0.0290     1.9640 hc         1 0BC       0.058700
     36 H7           6.2480     0.0860     0.1820 ha         1 0BC       0.132000
     37 H8           3.8530     0.0740    -0.3740 ha         1 0BC       0.137000
     38 H10          2.7230     2.3400     9.9070 h4         1 0BC       0.186000
     39 H11          3.0060     1.4250     7.6810 ha         1 0BC       0.165000
     40 H12          0.4160    -0.7440     5.0330 ha         1 0BC       0.145000
     41 H13         -0.9310     0.3100     8.9640 ha         1 0BC       0.182000
     42 H14          5.2730    -0.2170     4.3600 ha         1 0BC       0.192000
     43 H15          1.8910    -0.8850    -0.5110 h1         1 0BC       0.042200
     44 H16          1.8910     0.8850    -0.5110 h1         1 0BC       0.042200
     45 H17         -3.7890    -2.4820     5.0580 hn         1 0BC       0.370700
     46 NAR          2.6550    -0.2430     4.0200 ns         1 0BC      -0.462100
     47 CAV          7.3490    -0.0640     2.6400 c          1 0BC       0.580700
     48 H9          -0.8570     2.8010    12.7470 h5         1 0BC       0.066100
     49 H18          1.8220    -0.7790     3.8750 hn         1 0BC       0.331500
@<TRIPOS>BOND
     1     5    29 1
     2     5    21 2
     3    29     6 1
     4    21    17 1
     5    17     6 2
     6    17    15 1
     7    24    25 2
     8    24    20 1
     9    25    22 1
    10     9    15 ar
    11     9    16 ar
    12    15     7 ar
    13    20    16 1
    14    20    23 2
    15    16     8 ar
    16    22    23 1
    17     7    14 ar
    18     8    14 ar
    19    14    12 1
    20    12    27 2
    21    12    46 1
    22    46    18 1
    23     1    11 1
    24    28    19 1
    25    28    11 1
    26    18    10 ar
    27    18    19 ar
    28    10    13 ar
    29    19     4 ar
    30     2    47 1
    31     4     3 ar
    32    13     3 ar
    33    13    47 1
    34    47    26 2
    35     1    30 1
    36     1    31 1
    37     1    32 1
    38     2    33 1
    39     2    34 1
    40     2    35 1
    41     3    36 1
    42     4    37 1
    43     5    48 1
    44     6    38 1
    45     7    39 1
    46     8    40 1
    47     9    41 1
    48    10    42 1
    49    11    43 1
    50    11    44 1
    51    22    45 1
    52    46    49 1
@<TRIPOS>SUBSTRUCTURE
     1 0BC         1 TEMP              0 ****  ****    0 ROOT
