@<TRIPOS>MOLECULE
0BM
   68    70     1     0     0
SMALL
bcc


@<TRIPOS>ATOM
      1 S10          0.0000     0.0000     0.0000 s6         1 0BM       0.947900
      2 O11          1.4210     0.0000     0.0000 o          1 0BM      -0.575300
      3 O12         -0.7330     0.0000     1.2170 o          1 0BM      -0.575300
      4 C13         -0.6360     1.2730    -1.1250 c3         1 0BM       0.005700
      5 N9          -0.4090    -1.4320    -0.7240 n7         1 0BM      -0.564100
      6 C8           0.1830    -1.7960    -2.0130 c3         1 0BM       0.144500
      7 C15          1.3880    -2.6710    -1.7840 c          1 0BM       0.602100
      8 O16          1.5210    -3.2570    -0.7290 o          1 0BM      -0.615100
      9 C7          -0.8470    -2.5580    -2.8510 c3         1 0BM       0.019900
     10 C6          -1.9980    -1.6440    -3.1830 ca         1 0BM      -0.104300
     11 C1          -3.0840    -1.5610    -2.3330 ca         1 0BM      -0.101000
     12 C5          -1.9650    -0.8830    -4.3380 ca         1 0BM      -0.101000
     13 C2          -4.1400    -0.7220    -2.6380 ca         1 0BM      -0.094000
     14 C4          -3.0200    -0.0440    -4.6430 ca         1 0BM      -0.094000
     15 C3          -4.1090     0.0340    -3.7950 ca         1 0BM      -0.097000
     16 N17          2.3200    -2.8020    -2.7490 n          1 0BM      -0.142800
     17 C21          3.5360    -3.6230    -2.6610 c3         1 0BM      -0.029300
     18 C22          4.4110    -3.1240    -1.5390 c          1 0BM       0.554100
     19 O23          4.0530    -2.1830    -0.8650 o          1 0BM      -0.570100
     20 C20          4.2800    -3.4870    -4.0070 c3         1 0BM      -0.032400
     21 C19          3.1560    -3.0470    -4.9820 c3         1 0BM      -0.027400
     22 C18          2.2840    -2.1500    -4.0710 c3         1 0BM       0.037000
     23 N24          5.5910    -3.7250    -1.2870 ns         1 0BM      -0.230900
     24 C25          6.4410    -3.2410    -0.1970 c3         1 0BM       0.064000
     25 C26          7.7120    -4.0900    -0.1250 c3         1 0BM      -0.067700
     26 C27          7.3440    -5.5270     0.2540 c3         1 0BM      -0.037400
     27 C28          8.6150    -6.3810     0.2900 c3         1 0BM       0.176300
     28 N29          9.5850    -5.7480     1.1950 nh         1 0BM      -0.463600
     29 C30          9.9400    -4.3400     0.9740 c3         1 0BM       0.176300
     30 C31          8.6550    -3.5080     0.9290 c3         1 0BM      -0.037400
     31 C32         10.1480    -6.4600     2.2270 c2         1 0BM       0.271100
     32 N33         11.1360    -5.8920     2.9950 nz         1 0BM       0.186400
     33 N34          9.7450    -7.6740     2.4770 n2         1 0BM      -0.640100
     34 H113        -0.1430     1.1860    -2.0850 h1         1 0BM       0.063033
     35 H213        -0.4420     2.2540    -0.7070 h1         1 0BM       0.063033
     36 H313        -1.7040     1.1410    -1.2530 h1         1 0BM       0.063033
     37 HN9         -1.0250    -2.0690    -0.2590 hn         1 0BM       0.361800
     38 H8           0.4840    -0.8980    -2.5390 h1         1 0BM       0.037700
     39 H17         -0.3840    -2.9030    -3.7670 hc         1 0BM       0.030700
     40 H27         -1.2120    -3.4080    -2.2880 hc         1 0BM       0.030700
     41 H1          -3.1090    -2.1540    -1.4270 ha         1 0BM       0.106000
     42 H5          -1.1120    -0.9440    -5.0030 ha         1 0BM       0.106000
     43 H2          -4.9930    -0.6590    -1.9730 ha         1 0BM       0.107500
     44 H4          -2.9950     0.5500    -5.5480 ha         1 0BM       0.107500
     45 H3          -4.9360     0.6910    -4.0340 ha         1 0BM       0.108000
     46 H21          3.2670    -4.6590    -2.4940 h1         1 0BM       0.042700
     47 H120         4.6970    -4.4400    -4.3100 hc         1 0BM       0.024200
     48 H220         5.0480    -2.7260    -3.9430 hc         1 0BM       0.024200
     49 H119         2.5930    -3.9040    -5.3320 hc         1 0BM       0.029200
     50 H219         3.5630    -2.4780    -5.8080 hc         1 0BM       0.029200
     51 H118         1.2670    -2.1130    -4.4440 h1         1 0BM       0.026200
     52 H218         2.7060    -1.1540    -4.0100 h1         1 0BM       0.026200
     53 HN24         5.8930    -4.4920    -1.8550 hn         1 0BM       0.171500
     54 H125         6.7080    -2.2070    -0.3790 h1         1 0BM       0.036700
     55 H225         5.9040    -3.3150     0.7410 h1         1 0BM       0.036700
     56 H26          8.2070    -4.0880    -1.0890 hc         1 0BM       0.038700
     57 H127         6.6590    -5.9300    -0.4830 hc         1 0BM       0.042450
     58 H227         6.8770    -5.5330     1.2310 hc         1 0BM       0.042450
     59 H128         9.0370    -6.4460    -0.7060 h1         1 0BM       0.027450
     60 H228         8.3740    -7.3730     0.6530 h1         1 0BM       0.027450
     61 H130        10.5680    -3.9930     1.7860 h1         1 0BM       0.027450
     62 H230        10.4670    -4.2430     0.0330 h1         1 0BM       0.027450
     63 H131         8.8970    -2.4840     0.6710 hc         1 0BM       0.042450
     64 H231         8.1730    -3.5370     1.8990 hc         1 0BM       0.042450
     65 H133        11.5090    -6.5780     3.6200 hn         1 0BM       0.226133
     66 H233        11.8660    -5.5500     2.4010 hn         1 0BM       0.226133
     67 H134         9.0260    -8.0900     1.9180 hn         1 0BM       0.389400
     68 H333        10.7530    -5.1330     3.5230 hn         1 0BM       0.226133
@<TRIPOS>BOND
     1     1     2 2   
     2     1     3 2   
     3     1     4 1   
     4     1     5 1   
     5     4    34 1   
     6     4    35 1   
     7     4    36 1   
     8     5     6 1   
     9     5    37 1   
    10     6     7 1   
    11     6     9 1   
    12     6    38 1   
    13     7     8 2   
    14     7    16 1   
    15     9    10 1   
    16     9    39 1   
    17     9    40 1   
    18    10    11 ar  
    19    10    12 ar  
    20    11    13 ar  
    21    11    41 1   
    22    12    14 ar  
    23    12    42 1   
    24    13    15 ar  
    25    13    43 1   
    26    14    15 ar  
    27    14    44 1   
    28    15    45 1   
    29    16    17 1   
    30    16    22 1   
    31    17    18 1   
    32    17    20 1   
    33    17    46 1   
    34    18    19 2   
    35    18    23 1   
    36    20    21 1   
    37    20    47 1   
    38    20    48 1   
    39    21    22 1   
    40    21    49 1   
    41    21    50 1   
    42    22    51 1   
    43    22    52 1   
    44    23    24 1   
    45    23    53 1   
    46    24    25 1   
    47    24    54 1   
    48    24    55 1   
    49    25    26 1   
    50    25    30 1   
    51    25    56 1   
    52    26    27 1   
    53    26    57 1   
    54    26    58 1   
    55    27    28 1   
    56    27    59 1   
    57    27    60 1   
    58    28    29 1   
    59    28    31 1   
    60    29    30 1   
    61    29    61 1   
    62    29    62 1   
    63    30    63 1   
    64    30    64 1   
    65    31    32 1   
    66    31    33 2   
    67    32    65 1   
    68    32    66 1   
    69    32    68 1   
    70    33    67 1   
@<TRIPOS>SUBSTRUCTURE
     1 0BM         1 TEMP              0 ****  ****    0 ROOT
