@<TRIPOS>MOLECULE
molecule
   70    72     1     0     0
SMALL
bcc


@<TRIPOS>ATOM
      1 S10          0.0000     0.0000     0.0000 s6         1 0BM       1.497900
      2 O11          1.4270     0.0000     0.0000 o          1 0BM      -0.516300
      3 O12         -0.6960     0.0000     1.2480 o          1 0BM      -0.516300
      4 C13         -0.5540    -1.3670    -0.9380 c3         1 0BM      -0.536300
      5 N9          -0.4400     1.3820    -0.7600 ny         1 0BM      -0.665900
      6 C8           0.0950     1.7800    -2.0560 c3         1 0BM       0.085500
      7 C15         -0.9110     1.3080    -3.1160 c          1 0BM       0.664100
      8 O16         -2.1000     1.4740    -2.9040 o          1 0BM      -0.686100
      9 C7           0.2390     3.3090    -2.0540 c3         1 0BM      -0.037100
     10 C6           0.7970     3.8480    -3.3470 ca         1 0BM      -0.146300
     11 C1          -0.0040     4.5820    -4.2170 ca         1 0BM      -0.132000
     12 C5           2.1230     3.6170    -3.7030 ca         1 0BM      -0.132000
     13 C2           0.5040     5.0660    -5.4130 ca         1 0BM      -0.114000
     14 C4           2.6310     4.1040    -4.9000 ca         1 0BM      -0.114000
     15 C3           1.8230     4.8270    -5.7540 ca         1 0BM      -0.094000
     16 N17         -0.4710     0.6540    -4.2140 n          1 0BM      -0.445800
     17 C21         -1.4100     0.1770    -5.2370 c3         1 0BM       0.056700
     18 C22         -2.2300    -0.9850    -4.6860 c          1 0BM       0.524100
     19 O23         -1.7380    -1.7650    -3.8720 o          1 0BM      -0.379100
     20 C20         -0.4910    -0.2940    -6.3810 c3         1 0BM      -0.085400
     21 C19          0.8780     0.2520    -6.0580 c3         1 0BM      -0.090400
     22 C18          0.9120     0.2910    -4.5600 c3         1 0BM       0.073000
     23 N24         -3.4860    -1.0850    -5.1030 ny         1 0BM      -0.680800
     24 C25         -4.3800    -2.1000    -4.5630 c3         1 0BM       0.103800
     25 C26         -5.3720    -1.6980    -3.4800 c3         1 0BM      -0.099700
     26 C27         -6.4890    -0.8060    -4.0160 c3         1 0BM      -0.116900
     27 C28         -7.5870    -0.5690    -2.9680 c3         1 0BM       0.172800
     28 N29         -7.0340    -0.0360    -1.7100 nh         1 0BM      -0.704600
     29 C30         -5.9240    -0.8340    -1.1480 c3         1 0BM       0.172800
     30 C31         -4.8250    -1.0910    -2.1880 c3         1 0BM      -0.116900
     31 C32         -7.9030     0.7660    -0.8860 c2         1 0BM       0.709100
     32 N33         -7.5380     0.8370     0.5170 nz         1 0BM      -0.872600
     33 N34         -8.9570     1.4280    -1.2530 n2         1 0BM      -0.714100
     34 H113        -0.6540    -2.2310    -0.2930 h1         1 0BM       0.208033
     35 H213        -1.5140    -1.1350    -1.3820 h1         1 0BM       0.208033
     36 H313         0.1630    -1.5820    -1.7210 h1         1 0BM       0.208033
     37 HN9         -0.2370     2.1300    -0.1270 hn         1 0BM       0.409800
     38 H8           1.0590     1.3140    -2.2210 hx         1 0BM       0.121700
     39 H17          0.8980     3.5960    -1.2440 hc         1 0BM       0.078700
     40 H27         -0.7360     3.7500    -1.8850 hc         1 0BM       0.078700
     41 H1          -1.0390     4.7730    -3.9580 ha         1 0BM       0.132500
     42 H5           2.7650     3.0500    -3.0400 ha         1 0BM       0.132500
     43 H2          -0.1330     5.6340    -6.0800 ha         1 0BM       0.159500
     44 H4           3.6650     3.9160    -5.1640 ha         1 0BM       0.159500
     45 H3           2.2210     5.2060    -6.6880 ha         1 0BM       0.167000
     46 H21         -2.0520     0.9840    -5.5710 h1         1 0BM       0.086700
     47 H120        -0.8380     0.1060    -7.3260 hc         1 0BM       0.091700
     48 H220        -0.4620    -1.3760    -6.4140 hc         1 0BM       0.091700
     49 H119         1.6470    -0.4110    -6.4360 hc         1 0BM       0.096700
     50 H219         0.9930     1.2490    -6.4650 hc         1 0BM       0.096700
     51 H118         1.1640    -0.6830    -4.1580 h1         1 0BM       0.085200
     52 H218         1.6050     1.0480    -4.2140 h1         1 0BM       0.085200
     53 HN24        -3.4480    -1.2340    -6.0920 hn         1 0BM       0.470800
     54 H125        -4.9480    -2.5070    -5.3910 hx         1 0BM       0.121700
     55 H225        -3.7640    -2.8960    -4.1620 hx         1 0BM       0.121700
     56 H26         -5.8570    -2.6190    -3.1780 hc         1 0BM       0.113700
     57 H127        -6.9290    -1.2800    -4.8850 hc         1 0BM       0.067450
     58 H227        -6.0670     0.1490    -4.3050 hc         1 0BM       0.067450
     59 H128        -8.3050     0.1390    -3.3640 h1         1 0BM       0.092950
     60 H228        -8.0860    -1.5080    -2.7620 h1         1 0BM       0.092950
     61 H130        -5.4960    -0.2990    -0.3080 h1         1 0BM       0.092950
     62 H230        -6.3140    -1.7850    -0.8050 h1         1 0BM       0.092950
     63 H131        -4.3400    -0.1510    -2.4220 hc         1 0BM       0.067450
     64 H231        -4.0960    -1.7710    -1.7640 hc         1 0BM       0.067450
     65 H133        -6.6340     1.2570     0.6060 hn         1 0BM       0.472800
     66 H233        -8.2120     1.3890     1.0100 hn         1 0BM       0.472800
     67 H134        -9.4790     1.9530    -0.5800 hn         1 0BM       0.473400
     68 H333        -7.5170    -0.0860     0.9030 hn         1 0BM       0.472800
     69 H92         -1.4340     1.3440    -0.8640 hn         1 0BM       0.409800
     70 H242        -3.9190    -0.2000    -4.9240 hn         1 0BM       0.470800
@<TRIPOS>BOND
     1    11    13 ar  
     2    11    10 ar  
     3    11    41 1   
     4    13    15 ar  
     5    13    43 1   
     6    15    14 ar  
     7    15    45 1   
     8    14    44 1   
     9    12    14 ar  
    10    12    42 1   
    11    10    12 ar  
    12     9    10 1   
    13     9    39 1   
    14     9    40 1   
    15     6     9 1   
    16     6    38 1   
    17     5     6 1   
    18     5     1 1   
    19     5    37 1   
    20     1     2 2   
    21     3     1 2   
    22     4     1 1   
    23     4    34 1   
    24     4    35 1   
    25     4    36 1   
    26     7    16 1   
    27     7     6 1   
    28     8     7 2   
    29    16    22 1   
    30    22    51 1   
    31    22    52 1   
    32    21    22 1   
    33    21    49 1   
    34    21    50 1   
    35    20    21 1   
    36    20    47 1   
    37    20    48 1   
    38    17    20 1   
    39    17    16 1   
    40    17    46 1   
    41    18    17 1   
    42    18    19 2   
    43    23    18 1   
    44    23    53 1   
    45    24    23 1   
    46    24    54 1   
    47    24    55 1   
    48    25    24 1   
    49    25    30 1   
    50    25    56 1   
    51    26    25 1   
    52    26    57 1   
    53    26    58 1   
    54    27    26 1   
    55    27    28 1   
    56    27    59 1   
    57    27    60 1   
    58    28    29 1   
    59    29    30 1   
    60    29    61 1   
    61    29    62 1   
    62    30    63 1   
    63    30    64 1   
    64    31    28 1   
    65    31    32 1   
    66    32    65 1   
    67    32    66 1   
    68    33    31 2   
    69    33    67 1   
    70    68    32 1   
    71    69     5 1   
    72    70    23 1   
@<TRIPOS>SUBSTRUCTURE
     1 0BM         1 TEMP              0 ****  ****    0 ROOT
