@<TRIPOS>MOLECULE
molecule
   68    70     1     0     0
SMALL
bcc


@<TRIPOS>ATOM
      1 S10          0.0000     0.0000     0.0000 s6         1 0BM       1.321900
      2 O11          1.4210     0.0000     0.0000 o          1 0BM      -0.617800
      3 O12         -0.7330     0.0000     1.2170 o          1 0BM      -0.617800
      4 C13         -0.6360     1.2730    -1.1250 c3         1 0BM      -0.248300
      5 N9          -0.4090    -1.4320    -0.7240 n7         1 0BM      -0.886100
      6 C8           0.1830    -1.7960    -2.0130 c3         1 0BM       0.192500
      7 C15          1.3880    -2.6710    -1.7840 c          1 0BM       0.676100
      8 O16          1.5210    -3.2570    -0.7290 o          1 0BM      -0.572100
      9 C7          -0.8470    -2.5580    -2.8510 c3         1 0BM      -0.041100
     10 C6          -1.9980    -1.6440    -3.1830 ca         1 0BM      -0.095300
     11 C1          -3.0840    -1.5610    -2.3330 ca         1 0BM      -0.126000
     12 C5          -1.9650    -0.8830    -4.3380 ca         1 0BM      -0.126000
     13 C2          -4.1400    -0.7220    -2.6380 ca         1 0BM      -0.123000
     14 C4          -3.0200    -0.0440    -4.6430 ca         1 0BM      -0.123000
     15 C3          -4.1090     0.0340    -3.7950 ca         1 0BM      -0.123000
     16 N17          2.3200    -2.8020    -2.7490 n          1 0BM      -0.481800
     17 C21          3.5360    -3.6230    -2.6610 c3         1 0BM       0.047700
     18 C22          4.4110    -3.1240    -1.5390 c          1 0BM       0.640100
     19 O23          4.0530    -2.1830    -0.8650 o          1 0BM      -0.539100
     20 C20          4.2800    -3.4870    -4.0070 c3         1 0BM      -0.093400
     21 C19          3.1560    -3.0470    -4.9820 c3         1 0BM      -0.093400
     22 C18          2.2840    -2.1500    -4.0710 c3         1 0BM       0.090000
     23 N24          5.5910    -3.7250    -1.2870 ns         1 0BM      -0.604900
     24 C25          6.4410    -3.2410    -0.1970 c3         1 0BM       0.123000
     25 C26          7.7120    -4.0900    -0.1250 c3         1 0BM      -0.094700
     26 C27          7.3440    -5.5270     0.2540 c3         1 0BM      -0.093900
     27 C28          8.6150    -6.3810     0.2900 c3         1 0BM       0.227300
     28 N29          9.5850    -5.7480     1.1950 nh         1 0BM      -0.767600
     29 C30          9.9400    -4.3400     0.9740 c3         1 0BM       0.227300
     30 C31          8.6550    -3.5080     0.9290 c3         1 0BM      -0.093900
     31 C32         10.1480    -6.4600     2.2270 c2         1 0BM       0.697100
     32 N33         11.1360    -5.8920     2.9950 nz         1 0BM      -0.805600
     33 N34          9.7450    -7.6740     2.4770 n2         1 0BM      -0.795100
     34 H113        -0.4350     2.2540    -0.7100 h1         1 0BM       0.097367
     35 H213        -0.1490     1.1810    -2.0870 h1         1 0BM       0.097367
     36 H313        -1.7050     1.1460    -1.2470 h1         1 0BM       0.097367
     37 HN9         -1.0230    -2.0700    -0.2580 hn         1 0BM       0.465800
     38 H8           0.4840    -0.8980    -2.5390 h1         1 0BM       0.068700
     39 H17         -0.3840    -2.9030    -3.7670 hc         1 0BM       0.063700
     40 H27         -1.2120    -3.4080    -2.2880 hc         1 0BM       0.063700
     41 H1          -3.1090    -2.1540    -1.4270 ha         1 0BM       0.128500
     42 H5          -1.1120    -0.9440    -5.0030 ha         1 0BM       0.128500
     43 H2          -4.9930    -0.6590    -1.9730 ha         1 0BM       0.136000
     44 H4          -2.9950     0.5500    -5.5480 ha         1 0BM       0.136000
     45 H3          -4.9360     0.6910    -4.0340 ha         1 0BM       0.137000
     46 H21          3.2670    -4.6590    -2.4940 h1         1 0BM       0.074700
     47 H120         5.0480    -2.7260    -3.9430 hc         1 0BM       0.057200
     48 H220         4.6970    -4.4400    -4.3100 hc         1 0BM       0.057200
     49 H119         2.5930    -3.9040    -5.3320 hc         1 0BM       0.062200
     50 H219         3.5640    -2.4770    -5.8080 hc         1 0BM       0.062200
     51 H118         2.7060    -1.1540    -4.0100 h1         1 0BM       0.053200
     52 H218         1.2670    -2.1130    -4.4440 h1         1 0BM       0.053200
     53 HN24         5.8930    -4.4920    -1.8550 hn         1 0BM       0.305500
     54 H125         5.9040    -3.3150     0.7410 h1         1 0BM       0.063200
     55 H225         6.7080    -2.2070    -0.3790 h1         1 0BM       0.063200
     56 H26          8.2070    -4.0880    -1.0890 hc         1 0BM       0.060700
     57 H127         6.8770    -5.5330     1.2310 hc         1 0BM       0.072700
     58 H227         6.6590    -5.9300    -0.4830 hc         1 0BM       0.072700
     59 H128         9.0370    -6.4460    -0.7060 h1         1 0BM       0.064200
     60 H228         8.3740    -7.3730     0.6530 h1         1 0BM       0.064200
     61 H130        10.4670    -4.2430     0.0330 h1         1 0BM       0.064200
     62 H230        10.5680    -3.9930     1.7860 h1         1 0BM       0.064200
     63 H131         8.8970    -2.4840     0.6710 hc         1 0BM       0.072700
     64 H231         8.1730    -3.5370     1.8990 hc         1 0BM       0.072700
     65 H133        11.8560    -5.5320     2.4000 hn         1 0BM       0.466467
     66 H233        10.7490    -5.1460     3.5390 hn         1 0BM       0.466467
     67 H134        10.1550    -8.1940     3.2280 hn         1 0BM       0.437400
     68 H333        11.5230    -6.5830     3.6060 hn         1 0BM       0.466467
@<TRIPOS>BOND
     1    11    13 ar  
     2    11    10 ar  
     3    11    41 1   
     4    13    15 ar  
     5    13    43 1   
     6    15    14 ar  
     7    15    45 1   
     8    14    44 1   
     9    12    14 ar  
    10    12    42 1   
    11    10    12 ar  
    12     9    10 1   
    13     9    39 1   
    14     9    40 1   
    15     6     9 1   
    16     6    38 1   
    17     5     6 1   
    18     5     1 1   
    19     5    37 1   
    20     1     2 2   
    21     3     1 2   
    22     4     1 1   
    23     4    34 1   
    24     4    35 1   
    25     4    36 1   
    26     7    16 1   
    27     7     6 1   
    28     8     7 2   
    29    16    22 1   
    30    22    51 1   
    31    22    52 1   
    32    21    22 1   
    33    21    49 1   
    34    21    50 1   
    35    20    21 1   
    36    20    47 1   
    37    20    48 1   
    38    17    20 1   
    39    17    16 1   
    40    17    46 1   
    41    18    17 1   
    42    18    19 2   
    43    23    18 1   
    44    23    53 1   
    45    24    23 1   
    46    24    54 1   
    47    24    55 1   
    48    25    24 1   
    49    25    30 1   
    50    25    56 1   
    51    26    25 1   
    52    26    57 1   
    53    26    58 1   
    54    27    26 1   
    55    27    28 1   
    56    27    59 1   
    57    27    60 1   
    58    28    29 1   
    59    29    30 1   
    60    29    61 1   
    61    29    62 1   
    62    30    63 1   
    63    30    64 1   
    64    31    28 1   
    65    31    32 1   
    66    32    65 1   
    67    32    66 1   
    68    33    31 2   
    69    33    67 1   
    70    68    32 1   
@<TRIPOS>SUBSTRUCTURE
     1 0BM         1 TEMP              0 ****  ****    0 ROOT
