@<TRIPOS>MOLECULE
0BP
   20    21     1     0     0
SMALL
bcc


@<TRIPOS>ATOM
      1 N1           0.0000     0.0000     0.0000 nb         1 0BP      -0.573000
      2 C2           1.3270     0.0000     0.0000 cp         1 0BP       0.316800
      3 C3           2.0340     0.0000     1.2000 ca         1 0BP      -0.181800
      4 C4           1.3330    -0.0000     2.3930 ca         1 0BP      -0.076000
      5 C12          1.3560    -0.0130    -2.4880 ca         1 0BP      -0.181800
      6 C11          2.0560    -0.0140    -3.6820 ca         1 0BP      -0.076000
      7 C10          3.4420    -0.0080    -3.6370 ca         1 0BP      -0.217300
      8 C9           4.0800    -0.0010    -2.4100 ca         1 0BP       0.397200
      9 N8           3.3890    -0.0010    -1.2890 nb         1 0BP      -0.573000
     10 C7           2.0630    -0.0000    -1.2890 cp         1 0BP       0.316800
     11 C5          -0.0530     0.0010     2.3480 ca         1 0BP      -0.217300
     12 C6          -0.6910     0.0010     1.1210 ca         1 0BP       0.397200
     13 H1           3.1170    -0.0000     1.1990 ha         1 0BP       0.134000
     14 H2           1.8560    -0.0000     3.3420 ha         1 0BP       0.109000
     15 H4           1.5330    -0.0220    -4.6310 ha         1 0BP       0.109000
     16 H5           4.0190    -0.0080    -4.5530 ha         1 0BP       0.112000
     17 H6           5.1630     0.0010    -2.3700 h4         1 0BP      -0.020900
     18 H7          -0.6300     0.0010     3.2650 ha         1 0BP       0.112000
     19 H8          -1.7740     0.0010     1.0820 h4         1 0BP      -0.020900
     20 H3           0.2720    -0.0180    -2.4870 ha         1 0BP       0.134000
@<TRIPOS>BOND
     1     1     2 ar  
     2     1    12 ar  
     3     2     3 ar  
     4     2    10 1   
     5     3     4 ar  
     6     3    13 1   
     7     4    11 ar  
     8     4    14 1   
     9     5     6 ar  
    10     5    10 ar  
    11     5    20 1   
    12     6     7 ar  
    13     6    15 1   
    14     7     8 ar  
    15     7    16 1   
    16     8     9 ar  
    17     8    17 1   
    18     9    10 ar  
    19    11    12 ar  
    20    11    18 1   
    21    12    19 1   
@<TRIPOS>SUBSTRUCTURE
     1 0BP         1 TEMP              0 ****  ****    0 ROOT
