@<TRIPOS>MOLECULE
molecule
   20    21     1     0     0
SMALL
bcc


@<TRIPOS>ATOM
      1 N1           0.0000     0.0000     0.0000 nb         1 0BP      -0.691000
      2 C2           1.3270     0.0000     0.0000 cp         1 0BP       0.370300
      3 C3           2.0340     0.0000     1.2000 ca         1 0BP      -0.208800
      4 C4           1.3330    -0.0000     2.3930 ca         1 0BP      -0.102000
      5 C12          1.3560    -0.0130    -2.4880 ca         1 0BP      -0.208800
      6 C11          2.0560    -0.0140    -3.6820 ca         1 0BP      -0.102000
      7 C10          3.4420    -0.0080    -3.6370 ca         1 0BP      -0.249300
      8 C9           4.0800    -0.0010    -2.4100 ca         1 0BP       0.418200
      9 N8           3.3890    -0.0010    -1.2890 nb         1 0BP      -0.691000
     10 C7           2.0630    -0.0000    -1.2890 cp         1 0BP       0.370300
     11 C5          -0.0530     0.0010     2.3480 ca         1 0BP      -0.249300
     12 C6          -0.6910     0.0010     1.1210 ca         1 0BP       0.418200
     13 H1           3.1170    -0.0000     1.1990 ha         1 0BP       0.163000
     14 H2           1.8560    -0.0000     3.3420 ha         1 0BP       0.139000
     15 H4           1.5330    -0.0220    -4.6310 ha         1 0BP       0.139000
     16 H5           4.0190    -0.0080    -4.5530 ha         1 0BP       0.137000
     17 H6           5.1630     0.0010    -2.3700 h4         1 0BP       0.023100
     18 H7          -0.6300     0.0010     3.2650 ha         1 0BP       0.137000
     19 H8          -1.7740     0.0010     1.0820 h4         1 0BP       0.023100
     20 H3           0.2720    -0.0180    -2.4870 ha         1 0BP       0.163000
@<TRIPOS>BOND
     1    12    11 ar
     2    12     1 ar
     3    11     4 ar
     4     1     2 ar
     5     9     8 ar
     6     9    10 ar
     7     2    10 1
     8     2     3 ar
     9     4     3 ar
    10     8     7 ar
    11    10     5 ar
    12     7     6 ar
    13     5     6 ar
    14     3    13 1
    15     4    14 1
    16     5    20 1
    17     6    15 1
    18     7    16 1
    19     8    17 1
    20    11    18 1
    21    12    19 1
@<TRIPOS>SUBSTRUCTURE
     1 0BP         1 TEMP              0 ****  ****    0 ROOT
