@<TRIPOS>MOLECULE
0BP
   20    21     1     0     0
SMALL
bcc


@<TRIPOS>ATOM
      1 N1           0.0610     0.5590     0.0700 nb         1 0BP      -0.631000
      2 C2           1.2680    -0.0490    -0.0420 cp         1 0BP       0.353300
      3 C3           1.9620    -0.5870     1.0640 ca         1 0BP      -0.233300
      4 C4           1.3810    -0.4950     2.3290 ca         1 0BP      -0.095000
      5 C12          3.1970     0.3850    -1.5500 ca         1 0BP      -0.233300
      6 C11          3.8050     0.2930    -2.8030 ca         1 0BP      -0.095000
      7 C10          3.1170    -0.3280    -3.8450 ca         1 0BP      -0.242300
      8 C9           1.8310    -0.8380    -3.5830 ca         1 0BP       0.393200
      9 N8           1.2210    -0.7600    -2.3880 nb         1 0BP      -0.631000
     10 C7           1.9020    -0.1520    -1.3840 cp         1 0BP       0.353300
     11 C5           0.1390     0.1260     2.4600 ca         1 0BP      -0.242300
     12 C6          -0.4750     0.6370     1.3000 ca         1 0BP       0.393200
     13 H1           2.9370    -1.0720     0.9210 ha         1 0BP       0.146000
     14 H2           1.8960    -0.9090     3.2080 ha         1 0BP       0.139000
     15 H4           4.8110     0.7070    -2.9640 ha         1 0BP       0.139000
     16 H5           3.5580    -0.4190    -4.8460 ha         1 0BP       0.144000
     17 H6           1.2490    -1.3390    -4.3780 h4         1 0BP       0.025100
     18 H7          -0.3530     0.2180     3.4360 ha         1 0BP       0.144000
     19 H8          -1.4590     1.1390     1.3560 h4         1 0BP       0.025100
     20 H3           3.7060     0.8700    -0.7070 ha         1 0BP       0.146000
@<TRIPOS>BOND
     1     1     2 ar  
     2     1    12 ar  
     3     2     3 ar  
     4     2    10 1   
     5     3     4 ar  
     6     3    13 1   
     7     4    11 ar  
     8     4    14 1   
     9     5     6 ar  
    10     5    10 ar  
    11     5    20 1   
    12     6     7 ar  
    13     6    15 1   
    14     7     8 ar  
    15     7    16 1   
    16     8     9 ar  
    17     8    17 1   
    18     9    10 ar  
    19    11    12 ar  
    20    11    18 1   
    21    12    19 1   
@<TRIPOS>SUBSTRUCTURE
     1 0BP         1 TEMP              0 ****  ****    0 ROOT
