@<TRIPOS>MOLECULE
molecule
   45    48     1     0     0
SMALL
bcc


@<TRIPOS>ATOM
      1 CAV          0.0000     0.0000     0.0000 ca         1 0BT      -0.101500
      2 CAW          1.3820     0.0000     0.0000 ca         1 0BT      -0.127000
      3 CAX          2.0740     0.0000     1.1970 ca         1 0BT       0.046900
      4 I1           4.1680    -0.0000     1.1980 i          1 0BT      -0.262900
      5 CAY          1.3820     0.0010     2.3950 ca         1 0BT      -0.127000
      6 CAZ         -0.0000     0.0030     2.3940 ca         1 0BT      -0.101500
      7 CAU         -0.6910     0.0070     1.1970 ca         1 0BT      -0.068300
      8 CAB         -2.1990     0.0080     1.1970 c3         1 0BT       0.330700
      9 PAA         -2.8140    -1.6100     0.6260 p5         1 0BT       0.971700
     10 OBC         -2.1760    -1.9500    -0.8120 o          1 0BT      -0.862167
     11 OBA         -2.4260    -2.6570     1.5980 o          1 0BT      -0.862167
     12 OBB         -4.4190    -1.5600     0.5030 o          1 0BT      -0.862167
     13 OAH         -2.6790     1.0400     0.3350 os         1 0BT      -0.345600
     14 OAD         -2.6820     0.2710     2.5200 os         1 0BT      -0.354600
     15 CAC         -2.1890     1.4990     3.0540 c3         1 0BT       0.076400
     16 CAE         -2.6220     2.6730     2.1700 c3         1 0BT       0.063100
     17 OAF         -1.7480     3.7810     2.4800 os         1 0BT      -0.446600
     18 CAG         -2.3220     2.3580     0.6900 c3         1 0BT       0.127100
     19 CAI         -0.7930     2.5720     0.6330 c3         1 0BT      -0.195400
     20 CAJ         -0.6010     3.7470     1.6210 c3         1 0BT       0.306500
     21 N1           0.6100     3.5330     2.4170 n          1 0BT      -0.362000
     22 C6           0.5010     3.1370     3.7230 cc         1 0BT       0.071600
     23 C5           1.6170     2.9410     4.4570 cd         1 0BT      -0.319400
     24 CAR          1.5180     2.5050     5.8960 c3         1 0BT      -0.003900
     25 C4           2.8830     3.1480     3.8570 c          1 0BT       0.718700
     26 O4           3.9030     2.9800     4.5000 o          1 0BT      -0.657500
     27 N3           2.9470     3.5370     2.5670 ns         1 0BT      -0.556500
     28 C2           1.8190     3.7210     1.8570 c          1 0BT       0.814500
     29 O2           1.8920     4.0720     0.6950 o          1 0BT      -0.669500
     30 H1          -0.5420     0.0020    -0.9380 ha         1 0BT       0.172500
     31 H2           1.9230    -0.0050    -0.9380 ha         1 0BT       0.121500
     32 H3           1.9230    -0.0000     3.3330 ha         1 0BT       0.121500
     33 H4          -0.5420     0.0060     3.3320 ha         1 0BT       0.172500
     34 H7          -1.1070     1.4610     3.0940 h1         1 0BT       0.038200
     35 H8          -2.5850     1.6380     4.0520 h1         1 0BT       0.038200
     36 H9          -3.6630     2.9300     2.3230 h1         1 0BT       0.093700
     37 H10         -2.8240     3.0700     0.0460 h1         1 0BT       0.065700
     38 H11         -0.2670     1.6890     0.9770 hc         1 0BT       0.100200
     39 H12         -0.4800     2.8540    -0.3660 hc         1 0BT       0.100200
     40 H13         -0.5260     4.6780     1.0720 h2         1 0BT       0.080700
     41 H14         -0.4720     3.1010     4.1980 h4         1 0BT       0.186000
     42 H15          1.8970     1.4960     5.9950 hc         1 0BT       0.038367
     43 H16          0.4820     2.5340     6.2110 hc         1 0BT       0.038367
     44 H17          2.1030     3.1740     6.5170 hc         1 0BT       0.038367
     45 H18          3.8380     3.6840     2.1350 hn         1 0BT       0.353500
@<TRIPOS>BOND
     1    26    25 2
     2    25    27 1
     3    25    23 1
     4    24    23 1
     5    27    28 1
     6    23    22 2
     7    28    29 2
     8    28    21 1
     9    22    21 1
    10    21    20 1
    11    20    19 1
    12    20    17 1
    13    19    18 1
    14    17    16 1
    15    13    18 1
    16    13     8 1
    17    18    16 1
    18     5     6 ar
    19     5     3 ar
    20     6     7 ar
    21    16    15 1
    22     3     4 1
    23     3     2 ar
    24     7     8 1
    25     7     1 ar
    26     8    14 1
    27     8     9 1
    28    14    15 1
    29     2     1 ar
    30    11     9 1
    31    10     9 1
    32     9    12 1
    33     1    30 1
    34     2    31 1
    35     5    32 1
    36     6    33 1
    37    15    34 1
    38    15    35 1
    39    16    36 1
    40    18    37 1
    41    19    38 1
    42    19    39 1
    43    20    40 1
    44    22    41 1
    45    24    42 1
    46    24    43 1
    47    24    44 1
    48    27    45 1
@<TRIPOS>SUBSTRUCTURE
     1 0BT         1 TEMP              0 ****  ****    0 ROOT
