@<TRIPOS>MOLECULE
0BT
   45    48     1     0     0
SMALL
bcc


@<TRIPOS>ATOM
      1 CAV          0.0000     0.0000     0.0000 ca         1 0BT      -0.091000
      2 CAW          1.3820     0.0000     0.0000 ca         1 0BT      -0.124000
      3 CAX          2.0740     0.0000     1.1970 ca         1 0BT       0.214900
      4 I1           4.1680    -0.0000     1.1980 i          1 0BT      -0.447900
      5 CAY          1.3820     0.0010     2.3950 ca         1 0BT      -0.124000
      6 CAZ         -0.0000     0.0030     2.3940 ca         1 0BT      -0.091000
      7 CAU         -0.6910     0.0070     1.1970 ca         1 0BT      -0.048300
      8 CAB         -2.1990     0.0080     1.1970 c3         1 0BT       0.472700
      9 PAA         -2.8140    -1.6100     0.6260 p5         1 0BT       0.409700
     10 OBC         -2.1760    -1.9500    -0.8120 o          1 0BT      -0.696167
     11 OBA         -2.4260    -2.6570     1.5980 o          1 0BT      -0.696167
     12 OBB         -4.4190    -1.5600     0.5030 o          1 0BT      -0.696167
     13 OAH         -2.6790     1.0400     0.3350 os         1 0BT      -0.328600
     14 OAD         -2.6820     0.2710     2.5200 os         1 0BT      -0.336600
     15 CAC         -2.1890     1.4990     3.0540 c3         1 0BT       0.089400
     16 CAE         -2.6220     2.6730     2.1700 c3         1 0BT       0.112100
     17 OAF         -1.7480     3.7810     2.4800 os         1 0BT      -0.436600
     18 CAG         -2.3220     2.3580     0.6900 c3         1 0BT       0.157100
     19 CAI         -0.7930     2.5720     0.6330 c3         1 0BT      -0.206400
     20 CAJ         -0.6010     3.7470     1.6210 c3         1 0BT       0.234500
     21 N1           0.6100     3.5330     2.4170 n          1 0BT       0.047000
     22 C6           0.5010     3.1370     3.7230 cc         1 0BT      -0.063400
     23 C5           1.6170     2.9410     4.4570 cd         1 0BT      -0.325400
     24 CAR          1.5180     2.5050     5.8960 c3         1 0BT       0.110100
     25 C4           2.8830     3.1480     3.8570 c          1 0BT       0.634700
     26 O4           3.9030     2.9800     4.5000 o          1 0BT      -0.701500
     27 N3           2.9470     3.5370     2.5670 ns         1 0BT      -0.121500
     28 C2           1.8190     3.7210     1.8570 c          1 0BT       0.593500
     29 O2           1.8920     4.0720     0.6950 o          1 0BT      -0.720500
     30 H1          -0.5420     0.0020    -0.9380 ha         1 0BT       0.151000
     31 H2           1.9230    -0.0050    -0.9380 ha         1 0BT       0.102500
     32 H3           1.9230    -0.0000     3.3330 ha         1 0BT       0.102500
     33 H4          -0.5420     0.0060     3.3320 ha         1 0BT       0.151000
     34 H7          -1.1070     1.4610     3.0940 h1         1 0BT       0.012700
     35 H8          -2.5850     1.6380     4.0520 h1         1 0BT       0.012700
     36 H9          -3.6630     2.9300     2.3230 h1         1 0BT       0.048700
     37 H10         -2.8240     3.0700     0.0460 h1         1 0BT       0.021700
     38 H11         -0.2670     1.6890     0.9770 hc         1 0BT       0.086200
     39 H12         -0.4800     2.8540    -0.3660 hc         1 0BT       0.086200
     40 H13         -0.5260     4.6780     1.0720 h2         1 0BT       0.039700
     41 H14         -0.4720     3.1010     4.1980 h4         1 0BT       0.163000
     42 H15          1.8970     1.4960     5.9950 hc         1 0BT       0.002033
     43 H16          0.4820     2.5340     6.2110 hc         1 0BT       0.002033
     44 H17          2.1030     3.1740     6.5170 hc         1 0BT       0.002033
     45 H18          3.8380     3.6840     2.1350 hn         1 0BT       0.197500
@<TRIPOS>BOND
     1     1     2 ar  
     2     1     7 ar  
     3     1    30 1   
     4     2     3 ar  
     5     2    31 1   
     6     3     4 1   
     7     3     5 ar  
     8     5     6 ar  
     9     5    32 1   
    10     6     7 ar  
    11     6    33 1   
    12     7     8 1   
    13     8     9 1   
    14     8    13 1   
    15     8    14 1   
    16     9    10 1   
    17     9    11 1   
    18     9    12 1   
    19    13    18 1   
    20    14    15 1   
    21    15    16 1   
    22    15    34 1   
    23    15    35 1   
    24    16    17 1   
    25    16    18 1   
    26    16    36 1   
    27    17    20 1   
    28    18    19 1   
    29    18    37 1   
    30    19    20 1   
    31    19    38 1   
    32    19    39 1   
    33    20    21 1   
    34    20    40 1   
    35    21    22 1   
    36    21    28 1   
    37    22    23 2   
    38    22    41 1   
    39    23    24 1   
    40    23    25 1   
    41    24    42 1   
    42    24    43 1   
    43    24    44 1   
    44    25    26 2   
    45    25    27 1   
    46    27    28 1   
    47    27    45 1   
    48    28    29 2   
@<TRIPOS>SUBSTRUCTURE
     1 0BT         1 TEMP              0 ****  ****    0 ROOT
