@<TRIPOS>MOLECULE
0BV
   29    31     1     0     0
SMALL
bcc


@<TRIPOS>ATOM
      1 OAA          0.0000     0.0000     0.0000 o          1 0BV      -0.554100
      2 CAB          1.2080     0.0000     0.0000 c          1 0BV       0.657900
      3 CAL          1.9620     0.0000     1.3040 c3         1 0BV      -0.107100
      4 CAM          2.9190    -1.1630     1.3320 ca         1 0BV      -0.082300
      5 CAO          4.1970    -1.0220     0.7410 ca         1 0BV      -0.026000
      6 CAH          4.5830     0.1810     0.1350 ca         1 0BV      -0.105000
      7 CAD          5.8220     0.2890    -0.4260 ca         1 0BV      -0.095000
      8 CAF          6.7110    -0.7790    -0.4060 ca         1 0BV      -0.097000
      9 CAJ          6.3640    -1.9650     0.1770 ca         1 0BV      -0.091000
     10 CAQ          5.1040    -2.1060     0.7610 ca         1 0BV      -0.016000
     11 CAP          4.6900    -3.3600     1.3970 ca         1 0BV      -0.018000
     12 CAI          5.5370    -4.4680     1.4470 ca         1 0BV      -0.096000
     13 CAE          5.1120    -5.6180     2.0490 ca         1 0BV      -0.093000
     14 CAC          3.8450    -5.6990     2.6120 ca         1 0BV      -0.101000
     15 CAG          2.9940    -4.6330     2.5790 ca         1 0BV      -0.083000
     16 CAN          3.4000    -3.4370     1.9690 ca         1 0BV      -0.036000
     17 CAK          2.5400    -2.3160     1.9220 ca         1 0BV      -0.072000
     18 H1           1.7490     0.0180    -0.9380 h4         1 0BV      -0.035800
     19 H2           2.5170     0.9260     1.4000 hc         1 0BV       0.044700
     20 H3           1.2620    -0.0890     2.1260 hc         1 0BV       0.044700
     21 H4           3.9000     1.0220     0.1130 ha         1 0BV       0.110000
     22 H5           6.1180     1.2200    -0.8930 ha         1 0BV       0.102000
     23 H6           7.6890    -0.6710    -0.8570 ha         1 0BV       0.103000
     24 H7           7.0640    -2.7910     0.1870 ha         1 0BV       0.112000
     25 H8           6.5280    -4.4170     1.0110 ha         1 0BV       0.111000
     26 H9           5.7710    -6.4780     2.0870 ha         1 0BV       0.102000
     27 H10          3.5270    -6.6210     3.0840 ha         1 0BV       0.103000
     28 H11          2.0080    -4.7110     3.0220 ha         1 0BV       0.107000
     29 H12          1.5560    -2.3830     2.3700 ha         1 0BV       0.112000
@<TRIPOS>BOND
     1     1     2 2   
     2     2     3 1   
     3     2    18 1   
     4     3     4 1   
     5     3    19 1   
     6     3    20 1   
     7     4     5 ar  
     8     4    17 ar  
     9     5     6 ar  
    10     5    10 ar  
    11     6     7 ar  
    12     6    21 1   
    13     7     8 ar  
    14     7    22 1   
    15     8     9 ar  
    16     8    23 1   
    17     9    10 ar  
    18     9    24 1   
    19    10    11 ar  
    20    11    12 ar  
    21    11    16 ar  
    22    12    13 ar  
    23    12    25 1   
    24    13    14 ar  
    25    13    26 1   
    26    14    15 ar  
    27    14    27 1   
    28    15    16 ar  
    29    15    28 1   
    30    16    17 ar  
    31    17    29 1   
@<TRIPOS>SUBSTRUCTURE
     1 0BV         1 TEMP              0 ****  ****    0 ROOT
