@<TRIPOS>MOLECULE
molecule
   29    31     1     0     0
SMALL
bcc


@<TRIPOS>ATOM
      1 OAA          0.0000     0.0000     0.0000 o          1 0BV      -0.520100
      2 CAB          1.2080     0.0000     0.0000 c          1 0BV       0.573900
      3 CAL          1.9620     0.0000     1.3040 c3         1 0BV      -0.160100
      4 CAM          2.9190    -1.1630     1.3320 ca         1 0BV      -0.078300
      5 CAO          4.1970    -1.0220     0.7410 ca         1 0BV      -0.029000
      6 CAH          4.5830     0.1810     0.1350 ca         1 0BV      -0.125000
      7 CAD          5.8220     0.2890    -0.4260 ca         1 0BV      -0.122000
      8 CAF          6.7110    -0.7790    -0.4060 ca         1 0BV      -0.124000
      9 CAJ          6.3640    -1.9650     0.1770 ca         1 0BV      -0.113000
     10 CAQ          5.1040    -2.1060     0.7610 ca         1 0BV      -0.021000
     11 CAP          4.6900    -3.3600     1.3970 ca         1 0BV      -0.022000
     12 CAI          5.5370    -4.4680     1.4470 ca         1 0BV      -0.117000
     13 CAE          5.1120    -5.6180     2.0490 ca         1 0BV      -0.120000
     14 CAC          3.8450    -5.6990     2.6120 ca         1 0BV      -0.126000
     15 CAG          2.9940    -4.6330     2.5790 ca         1 0BV      -0.111000
     16 CAN          3.4000    -3.4370     1.9690 ca         1 0BV      -0.035000
     17 CAK          2.5400    -2.3160     1.9220 ca         1 0BV      -0.098000
     18 H1           1.7490     0.0180    -0.9380 h4         1 0BV       0.002200
     19 H2           2.5170     0.9260     1.4000 hc         1 0BV       0.075700
     20 H3           1.2620    -0.0890     2.1260 hc         1 0BV       0.075700
     21 H4           3.9000     1.0220     0.1130 ha         1 0BV       0.131000
     22 H5           6.1180     1.2200    -0.8930 ha         1 0BV       0.130000
     23 H6           7.6890    -0.6710    -0.8570 ha         1 0BV       0.131000
     24 H7           7.0640    -2.7910     0.1870 ha         1 0BV       0.135000
     25 H8           6.5280    -4.4170     1.0110 ha         1 0BV       0.134000
     26 H9           5.7710    -6.4780     2.0870 ha         1 0BV       0.131000
     27 H10          3.5270    -6.6210     3.0840 ha         1 0BV       0.131000
     28 H11          2.0080    -4.7110     3.0220 ha         1 0BV       0.135000
     29 H12          1.5560    -2.3830     2.3700 ha         1 0BV       0.138000
@<TRIPOS>BOND
     1    14    13 ar  
     2    14    15 ar  
     3    13    12 ar  
     4    15    16 ar  
     5    12    11 ar  
     6    16    11 ar  
     7    16    17 ar  
     8    11    10 ar  
     9    17     4 ar  
    10    10     9 ar  
    11    10     5 ar  
    12     1     2 2   
    13     9     8 ar  
    14     4     5 ar  
    15     4     3 1   
    16     5     6 ar  
    17     2     3 1   
    18     8     7 ar  
    19     6     7 ar  
    20     2    18 1   
    21     3    19 1   
    22     3    20 1   
    23     6    21 1   
    24     7    22 1   
    25     8    23 1   
    26     9    24 1   
    27    12    25 1   
    28    13    26 1   
    29    14    27 1   
    30    15    28 1   
    31    17    29 1   
@<TRIPOS>SUBSTRUCTURE
     1 0BV         1 TEMP              0 ****  ****    0 ROOT
