@<TRIPOS>MOLECULE
0BV
   29    31     1     0     0
SMALL
bcc


@<TRIPOS>ATOM
      1 OAA          0.7900     0.8830    -0.6420 o          1 0BV      -0.522100
      2 CAB          1.1980    -0.0760     0.0130 c          1 0BV       0.564900
      3 CAL          1.9780     0.0810     1.2850 c3         1 0BV      -0.162100
      4 CAM          1.5170    -0.8100     2.3840 ca         1 0BV      -0.061300
      5 CAO          2.3790    -1.0090     3.5260 ca         1 0BV      -0.029000
      6 CAH          3.6220    -0.3410     3.6300 ca         1 0BV      -0.124000
      7 CAD          4.4480    -0.5400     4.7180 ca         1 0BV      -0.124000
      8 CAF          4.0550    -1.4150     5.7450 ca         1 0BV      -0.126000
      9 CAJ          2.8410    -2.0660     5.6700 ca         1 0BV      -0.118000
     10 CAQ          1.9730    -1.8780     4.5690 ca         1 0BV      -0.016000
     11 CAP          0.6890    -2.5390     4.4960 ca         1 0BV      -0.019000
     12 CAI          0.2260    -3.4220     5.4990 ca         1 0BV      -0.118000
     13 CAE         -1.0140    -4.0230     5.3990 ca         1 0BV      -0.125000
     14 CAC         -1.8430    -3.7670     4.2930 ca         1 0BV      -0.125000
     15 CAG         -1.4140    -2.9130     3.2980 ca         1 0BV      -0.117000
     16 CAN         -0.1460    -2.2920     3.3830 ca         1 0BV      -0.035000
     17 CAK          0.2970    -1.4170     2.3390 ca         1 0BV      -0.117000
     18 H1           1.0350    -1.1250    -0.3240 h4         1 0BV       0.001200
     19 H2           3.0500    -0.1530     1.0280 hc         1 0BV       0.083200
     20 H3           1.9370     1.1500     1.6320 hc         1 0BV       0.083200
     21 H4           3.9340     0.3570     2.8390 ha         1 0BV       0.133000
     22 H5           5.4120    -0.0150     4.7880 ha         1 0BV       0.135000
     23 H6           4.7190    -1.5730     6.6080 ha         1 0BV       0.135000
     24 H7           2.5500    -2.7410     6.4890 ha         1 0BV       0.134000
     25 H8           0.8530    -3.6400     6.3750 ha         1 0BV       0.133000
     26 H9          -1.3610    -4.7070     6.1880 ha         1 0BV       0.134000
     27 H10         -2.8290    -4.2510     4.2280 ha         1 0BV       0.135000
     28 H11         -2.0520    -2.7040     2.4260 ha         1 0BV       0.134000
     29 H12         -0.3920    -1.2540     1.4950 ha         1 0BV       0.134000
@<TRIPOS>BOND
     1     1     2 2   
     2     2     3 1   
     3     2    18 1   
     4     3     4 1   
     5     3    19 1   
     6     3    20 1   
     7     4     5 ar  
     8     4    17 ar  
     9     5     6 ar  
    10     5    10 ar  
    11     6     7 ar  
    12     6    21 1   
    13     7     8 ar  
    14     7    22 1   
    15     8     9 ar  
    16     8    23 1   
    17     9    10 ar  
    18     9    24 1   
    19    10    11 ar  
    20    11    12 ar  
    21    11    16 ar  
    22    12    13 ar  
    23    12    25 1   
    24    13    14 ar  
    25    13    26 1   
    26    14    15 ar  
    27    14    27 1   
    28    15    16 ar  
    29    15    28 1   
    30    16    17 ar  
    31    17    29 1   
@<TRIPOS>SUBSTRUCTURE
     1 0BV         1 TEMP              0 ****  ****    0 ROOT
