@<TRIPOS>MOLECULE
molecule
   53    55     1     0     0
SMALL
bcc


@<TRIPOS>ATOM
      1 CAO          0.0000     0.0000     0.0000 c3         1 0BW       0.168800
      2 CAM          1.5300     0.0000     0.0000 c3         1 0BW       0.161800
      3 NBA          2.0180     0.0000     1.3860 n3         1 0BW      -0.733600
      4 CAC          3.4850    -0.0760     1.4280 c3         1 0BW       0.152100
      5 CAN          1.5310     1.1820     2.1130 c3         1 0BW       0.161800
      6 CAP          0.0000     1.1810     2.1130 c3         1 0BW       0.168800
      7 NBB         -0.4880     1.1810     0.7270 nh         1 0BW      -0.630000
      8 CAZ         -1.8770     1.2540     0.6870 ca         1 0BW       0.080600
      9 CAJ         -2.6410     0.2210     1.2190 ca         1 0BW      -0.167000
     10 CAI         -4.0160     0.2880     1.1820 ca         1 0BW      -0.089000
     11 CAX         -4.6470     1.3950     0.6080 ca         1 0BW      -0.123600
     12 CAU         -6.1190     1.4670     0.5670 c          1 0BW       0.647700
     13 OAE         -6.6670     2.4310     0.0690 o          1 0BW      -0.541000
     14 OAR         -6.8570     0.4650     1.0840 os         1 0BW      -0.431900
     15 CAA         -8.3000     0.6030     1.0100 c3         1 0BW       0.141700
     16 CAL         -3.8810     2.4360     0.0730 ca         1 0BW      -0.066000
     17 CAY         -2.5020     2.3670     0.1180 ca         1 0BW       0.063600
     18 NAQ         -1.7300     3.4060    -0.4160 ns         1 0BW      -0.462100
     19 CAT         -2.1560     4.0680    -1.5120 c          1 0BW       0.673700
     20 OAD         -3.2470     3.8180    -1.9860 o          1 0BW      -0.590100
     21 CAW         -1.2970     5.0980    -2.1340 ca         1 0BW      -0.112600
     22 CAK         -1.7380     5.7880    -3.2630 ca         1 0BW      -0.096000
     23 CAH         -0.0440     5.3870    -1.5910 ca         1 0BW      -0.144000
     24 CAF          0.7560     6.3480    -2.1740 ca         1 0BW      -0.099000
     25 CAG          0.3190     7.0270    -3.2970 ca         1 0BW      -0.200000
     26 CAV         -0.9280     6.7510    -3.8410 ca         1 0BW       0.132100
     27 OAS         -1.3530     7.4250    -4.9420 os         1 0BW      -0.322900
     28 CAB         -0.4660     8.4050    -5.4850 c3         1 0BW       0.128700
     29 H1          -0.3600    -0.8980     0.4880 h1         1 0BW       0.048200
     30 H2          -0.3600     0.0320    -1.0210 h1         1 0BW       0.048200
     31 H3           1.8900    -0.8860    -0.5080 h1         1 0BW       0.041950
     32 H4           1.8900     0.8860    -0.5090 h1         1 0BW       0.041950
     33 H6           3.8150    -0.9710     0.9150 h1         1 0BW       0.033367
     34 H7           3.8150    -0.1080     2.4600 h1         1 0BW       0.033367
     35 H8           3.9060     0.7950     0.9410 h1         1 0BW       0.033367
     36 H9           1.8910     2.0790     1.6240 h1         1 0BW       0.041950
     37 H10          1.8910     1.1510     3.1340 h1         1 0BW       0.041950
     38 H11         -0.3600     2.0670     2.6220 h1         1 0BW       0.048200
     39 H12         -0.3590     0.2950     2.6220 h1         1 0BW       0.048200
     40 H13         -2.1530    -0.6380     1.6640 ha         1 0BW       0.142000
     41 H14         -4.6080    -0.5190     1.5970 ha         1 0BW       0.149000
     42 H15         -8.6060     1.4940     1.5450 h1         1 0BW       0.048700
     43 H16         -8.7690    -0.2660     1.4580 h1         1 0BW       0.048700
     44 H17         -8.6030     0.6820    -0.0270 h1         1 0BW       0.048700
     45 H18         -4.3680     3.2960    -0.3700 ha         1 0BW       0.194000
     46 H19         -0.8930     3.6970     0.0490 hn         1 0BW       0.338500
     47 H20         -2.7110     5.5710    -3.6870 ha         1 0BW       0.172000
     48 H21          0.3000     4.8570    -0.7110 ha         1 0BW       0.128000
     49 H22          1.7290     6.5700    -1.7530 ha         1 0BW       0.134000
     50 H23          0.9510     7.7810    -3.7510 ha         1 0BW       0.137000
     51 H24         -0.2640     9.1630    -4.7390 h1         1 0BW       0.042700
     52 H25          0.4630     7.9290    -5.7770 h1         1 0BW       0.042700
     53 H26         -0.9230     8.8650    -6.3530 h1         1 0BW       0.042700
@<TRIPOS>BOND
     1    28    27 1   
     2    15    14 1   
     3    13    12 2   
     4    27    26 1   
     5    12    14 1   
     6    12    11 1   
     7    26    22 ar  
     8    26    25 ar  
     9    22    21 ar  
    10    16    11 ar  
    11    16    17 ar  
    12    11    10 ar  
    13    25    24 ar  
    14    18    17 1   
    15    18    19 1   
    16    17     8 ar  
    17    21    19 1   
    18    21    23 ar  
    19    10     9 ar  
    20    19    20 2   
    21    24    23 ar  
    22     8     9 ar  
    23     8     7 1   
    24     7     1 1   
    25     7     6 1   
    26     1     2 1   
    27     6     5 1   
    28     2     3 1   
    29     5     3 1   
    30     3     4 1   
    31     1    29 1   
    32     1    30 1   
    33     2    31 1   
    34     2    32 1   
    35     4    33 1   
    36     4    34 1   
    37     4    35 1   
    38     5    36 1   
    39     5    37 1   
    40     6    38 1   
    41     6    39 1   
    42     9    40 1   
    43    10    41 1   
    44    15    42 1   
    45    15    43 1   
    46    15    44 1   
    47    16    45 1   
    48    18    46 1   
    49    22    47 1   
    50    23    48 1   
    51    24    49 1   
    52    25    50 1   
    53    28    51 1   
    54    28    52 1   
    55    28    53 1   
@<TRIPOS>SUBSTRUCTURE
     1 0BW         1 TEMP              0 ****  ****    0 ROOT
