@<TRIPOS>MOLECULE
0BW
   53    55     1     0     0
SMALL
bcc


@<TRIPOS>ATOM
      1 CAO         -0.1020     0.5630    -0.2480 c3         1 0BW       0.176300
      2 CAM          1.4250     0.7320    -0.3840 c3         1 0BW       0.167300
      3 NBA          2.1480     0.2790     0.7960 n3         1 0BW      -0.733600
      4 CAC          3.5770     0.4500     0.6690 c3         1 0BW       0.157100
      5 CAN          1.6240     0.8560     2.0250 c3         1 0BW       0.167300
      6 CAP          0.0950     0.7100     2.1580 c3         1 0BW       0.176300
      7 NBB         -0.6070     1.1810     0.9690 nh         1 0BW      -0.645000
      8 CAZ         -2.0300     1.1720     1.1080 ca         1 0BW       0.089600
      9 CAJ         -2.8180     0.0910     0.6730 ca         1 0BW      -0.159000
     10 CAI         -4.2030     0.1100     0.7790 ca         1 0BW      -0.085000
     11 CAX         -4.8380     1.2250     1.3300 ca         1 0BW      -0.118600
     12 CAU         -6.3030     1.2860     1.4490 c          1 0BW       0.645700
     13 OAE         -7.0060     2.2470     1.7690 o          1 0BW      -0.534000
     14 OAR         -6.9380     0.1050     1.1530 os         1 0BW      -0.441900
     15 CAA         -8.3620     0.1080     1.2580 c3         1 0BW       0.127700
     16 CAL         -4.0910     2.3180     1.7720 ca         1 0BW      -0.088000
     17 CAY         -2.6840     2.3200     1.6690 ca         1 0BW       0.059600
     18 NAQ         -1.9340     3.4370     2.0710 ns         1 0BW      -0.468100
     19 CAT         -2.2800     4.3240     3.0850 c          1 0BW       0.672700
     20 OAD         -3.3350     4.2240     3.7360 o          1 0BW      -0.576100
     21 CAW         -1.2940     5.4130     3.3610 ca         1 0BW      -0.111600
     22 CAK         -0.6820     6.1160     2.3180 ca         1 0BW      -0.180000
     23 CAH         -1.0200     5.7310     4.6930 ca         1 0BW      -0.113000
     24 CAF         -0.1130     6.7520     4.9890 ca         1 0BW      -0.107000
     25 CAG          0.5110     7.4610     3.9710 ca         1 0BW      -0.134000
     26 CAV          0.2170     7.1410     2.6310 ca         1 0BW       0.118100
     27 OAS          0.8880     7.9030     1.6940 os         1 0BW      -0.325900
     28 CAB          0.5340     7.6850     0.3330 c3         1 0BW       0.111700
     29 H1          -0.5930     1.0660    -1.1260 h1         1 0BW       0.046200
     30 H2          -0.3390    -0.5390    -0.2960 h1         1 0BW       0.046200
     31 H3           1.7620     0.1040    -1.2550 h1         1 0BW       0.038450
     32 H4           1.6520     1.8110    -0.6260 h1         1 0BW       0.038450
     33 H6           3.8930     1.5270     0.5870 h1         1 0BW       0.034033
     34 H7           4.0750     0.0010     1.5680 h1         1 0BW       0.034033
     35 H8           3.9260    -0.0950    -0.2470 h1         1 0BW       0.034033
     36 H9           1.8930     1.9490     2.1210 h1         1 0BW       0.038450
     37 H10          2.0950     0.3080     2.8890 h1         1 0BW       0.038450
     38 H11         -0.2410     1.3290     3.0350 h1         1 0BW       0.046200
     39 H12         -0.1490    -0.3700     2.3790 h1         1 0BW       0.046200
     40 H13         -2.3360    -0.8020     0.2430 ha         1 0BW       0.142000
     41 H14         -4.8000    -0.7510     0.4380 ha         1 0BW       0.156000
     42 H15         -8.7950     0.8510     0.5460 h1         1 0BW       0.050700
     43 H16         -8.6670     0.3570     2.3030 h1         1 0BW       0.050700
     44 H17         -8.6480    -0.9370     0.9850 h1         1 0BW       0.050700
     45 H18         -4.6220     3.1830     2.2120 ha         1 0BW       0.190000
     46 H19         -1.0180     3.5180     1.6870 hn         1 0BW       0.336500
     47 H20         -0.9220     5.8800     1.2710 ha         1 0BW       0.145000
     48 H21         -1.5320     5.1850     5.5000 ha         1 0BW       0.156000
     49 H22          0.1030     7.0000     6.0390 ha         1 0BW       0.142000
     50 H23          1.2250     8.2690     4.1880 ha         1 0BW       0.154000
     51 H24          0.8050     6.6480     0.0190 h1         1 0BW       0.046700
     52 H25         -0.5550     7.8730     0.1710 h1         1 0BW       0.046700
     53 H26          1.1520     8.4390    -0.2190 h1         1 0BW       0.046700
@<TRIPOS>BOND
     1     1     2 1   
     2     1     7 1   
     3     1    29 1   
     4     1    30 1   
     5     2     3 1   
     6     2    31 1   
     7     2    32 1   
     8     3     4 1   
     9     3     5 1   
    10     4    33 1   
    11     4    34 1   
    12     4    35 1   
    13     5     6 1   
    14     5    36 1   
    15     5    37 1   
    16     6     7 1   
    17     6    38 1   
    18     6    39 1   
    19     7     8 1   
    20     8     9 ar  
    21     8    17 ar  
    22     9    10 ar  
    23     9    40 1   
    24    10    11 ar  
    25    10    41 1   
    26    11    12 1   
    27    11    16 ar  
    28    12    13 2   
    29    12    14 1   
    30    14    15 1   
    31    15    42 1   
    32    15    43 1   
    33    15    44 1   
    34    16    17 ar  
    35    16    45 1   
    36    17    18 1   
    37    18    19 1   
    38    18    46 1   
    39    19    20 2   
    40    19    21 1   
    41    21    22 ar  
    42    21    23 ar  
    43    22    26 ar  
    44    22    47 1   
    45    23    24 ar  
    46    23    48 1   
    47    24    25 ar  
    48    24    49 1   
    49    25    26 ar  
    50    25    50 1   
    51    26    27 1   
    52    27    28 1   
    53    28    51 1   
    54    28    52 1   
    55    28    53 1   
@<TRIPOS>SUBSTRUCTURE
     1 0BW         1 TEMP              0 ****  ****    0 ROOT
