@<TRIPOS>MOLECULE
0BX
   36    38     1     0     0
SMALL
bcc


@<TRIPOS>ATOM
      1 C06         -0.0720     0.2870     0.1890 ca         1 0BX      -0.118600
      2 C11         -0.8560     0.5490    -1.0890 c          1 0BX       0.908200
      3 C05          1.1830     0.8740     0.3830 ca         1 0BX      -0.104000
      4 C10          1.9070     0.6430     1.5460 ca         1 0BX      -0.153500
      5 C09          1.3820    -0.2020     2.5500 ca         1 0BX       0.070600
      6 C08          0.1210    -0.7950     2.3560 ca         1 0BX      -0.153500
      7 C07         -0.5910    -0.5430     1.1850 ca         1 0BX      -0.104000
      8 N01          2.1690    -0.5030     3.6970 nu         1 0BX      -0.688300
      9 C12          1.7770    -0.1270     4.9890 ca         1 0BX       0.898900
     10 N03          2.7790    -0.1220     5.9680 nb         1 0BX      -0.781000
     11 C15          2.3740     0.1220     7.2180 ca         1 0BX       0.471200
     12 C14          1.0460     0.3830     7.5850 ca         1 0BX      -0.461600
     13 C13          0.0860     0.3850     6.5320 ca         1 0BX       0.690200
     14 N02          0.4420     0.1450     5.2350 nb         1 0BX      -0.773000
     15 N04         -1.2900     0.5430     6.8110 nu         1 0BX      -0.725300
     16 C16         -1.7620     1.5580     7.6650 ca         1 0BX       0.155600
     17 C17         -0.9460     2.5830     8.1880 ca         1 0BX      -0.171000
     18 C18         -1.4750     3.5230     9.0680 ca         1 0BX      -0.105500
     19 C19         -2.8170     3.4780     9.4370 ca         1 0BX      -0.166000
     20 C20         -3.6390     2.4820     8.9100 ca         1 0BX      -0.105500
     21 C21         -3.1300     1.5310     8.0350 ca         1 0BX      -0.171000
     22 O22         -0.3280     1.2960    -1.9610 o          1 0BX      -0.828300
     23 O23         -1.9890     0.0040    -1.2090 o          1 0BX      -0.828300
     24 H1           1.5800     1.5260    -0.4120 ha         1 0BX       0.155000
     25 H2           2.8910     1.1170     1.6770 ha         1 0BX       0.117000
     26 H3          -0.3090    -1.4530     3.1240 ha         1 0BX       0.117000
     27 H4          -1.5810    -0.9980     1.0200 ha         1 0BX       0.155000
     28 H5           3.1550    -0.4490     3.5330 hn         1 0BX       0.428800
     29 H6           3.1720     0.1130     7.9840 h4         1 0BX       0.013100
     30 H7           0.7630     0.5550     8.6270 ha         1 0BX       0.153000
     31 H8          -1.9040     0.3490     6.0420 hn         1 0BX       0.440800
     32 H9           0.1130     2.6550     7.8950 ha         1 0BX       0.142500
     33 H10         -0.8220     4.3140     9.4670 ha         1 0BX       0.127000
     34 H11         -3.2270     4.2250    10.1300 ha         1 0BX       0.126000
     35 H12         -4.7030     2.4460     9.1870 ha         1 0BX       0.127000
     36 H13         -3.7980     0.7560     7.6290 ha         1 0BX       0.142500
@<TRIPOS>BOND
     1     1     2 1   
     2     1     3 ar  
     3     1     7 ar  
     4     2    22 1   
     5     2    23 1   
     6     3     4 ar  
     7     3    24 1   
     8     4     5 ar  
     9     4    25 1   
    10     5     6 ar  
    11     5     8 1   
    12     6     7 ar  
    13     6    26 1   
    14     7    27 1   
    15     8     9 1   
    16     8    28 1   
    17     9    10 ar  
    18     9    14 ar  
    19    10    11 ar  
    20    11    12 ar  
    21    11    29 1   
    22    12    13 ar  
    23    12    30 1   
    24    13    14 ar  
    25    13    15 1   
    26    15    16 1   
    27    15    31 1   
    28    16    17 ar  
    29    16    21 ar  
    30    17    18 ar  
    31    17    32 1   
    32    18    19 ar  
    33    18    33 1   
    34    19    20 ar  
    35    19    34 1   
    36    20    21 ar  
    37    20    35 1   
    38    21    36 1   
@<TRIPOS>SUBSTRUCTURE
     1 0BX         1 TEMP              0 ****  ****    0 ROOT
