@<TRIPOS>MOLECULE
0BX
   36    38     1     0     0
SMALL
bcc


@<TRIPOS>ATOM
      1 C06          0.0000     0.0000     0.0000 ca         1 0BX      -0.103600
      2 C11         -0.7390    -0.0010    -1.2760 c          1 0BX       0.974200
      3 C05          1.3980     0.0000     0.0000 ca         1 0BX      -0.063000
      4 C10          2.0840     0.0000     1.1930 ca         1 0BX      -0.144500
      5 C09          1.3880     0.0010     2.3990 ca         1 0BX      -0.064400
      6 C08         -0.0040     0.0010     2.4020 ca         1 0BX      -0.144500
      7 C07         -0.6970     0.0070     1.2130 ca         1 0BX      -0.063000
      8 N01          2.0860     0.0010     3.6030 nu         1 0BX      -0.250300
      9 C12          1.5730    -0.6710     4.7010 ca         1 0BX       0.733900
     10 N03          0.4710    -1.3930     4.5590 nb         1 0BX      -0.702000
     11 C15         -0.0490    -2.0500     5.5850 ca         1 0BX       0.524200
     12 C14          0.5700    -1.9780     6.8180 ca         1 0BX      -0.509600
     13 C13          1.7290    -1.2100     6.9370 ca         1 0BX       0.563200
     14 N02          2.1990    -0.5800     5.8650 nb         1 0BX      -0.767000
     15 N04          2.3850    -1.1090     8.1550 nu         1 0BX      -0.314300
     16 C16          3.6080    -0.4380     8.2370 ca         1 0BX       0.015600
     17 C17          3.9450     0.2570     9.3920 ca         1 0BX      -0.130000
     18 C18          5.1550     0.9180     9.4690 ca         1 0BX      -0.083000
     19 C19          6.0300     0.8900     8.3990 ca         1 0BX      -0.133000
     20 C20          5.6970     0.1990     7.2480 ca         1 0BX      -0.083000
     21 C21          4.4920    -0.4700     7.1660 ca         1 0BX      -0.130000
     22 O22         -2.0860    -0.0000    -1.2740 o          1 0BX      -0.885800
     23 O23         -0.1320    -0.0020    -2.3280 o          1 0BX      -0.885800
     24 H1           1.9410    -0.0010    -0.9380 ha         1 0BX       0.125500
     25 H2           3.1680    -0.0000     1.1940 ha         1 0BX       0.101000
     26 H3          -0.5430     0.0040     3.3420 ha         1 0BX       0.101000
     27 H4          -1.7800     0.0070     1.2160 ha         1 0BX       0.125500
     28 H5           2.9420     0.5130     3.6850 hn         1 0BX       0.278800
     29 H6          -0.9500    -2.6380     5.4580 h4         1 0BX      -0.023900
     30 H7           0.1640    -2.5050     7.6730 ha         1 0BX       0.119000
     31 H8           1.9920    -1.5340     8.9710 hn         1 0BX       0.283800
     32 H9           3.2600     0.2790    10.2300 ha         1 0BX       0.122000
     33 H10          5.4180     1.4610    10.3690 ha         1 0BX       0.097500
     34 H11          6.9770     1.4120     8.4610 ha         1 0BX       0.097000
     35 H12          6.3860     0.1770     6.4120 ha         1 0BX       0.097500
     36 H13          4.2320    -1.0100     6.2640 ha         1 0BX       0.122000
@<TRIPOS>BOND
     1     1     2 1   
     2     1     3 ar  
     3     1     7 ar  
     4     2    22 1   
     5     2    23 1   
     6     3     4 ar  
     7     3    24 1   
     8     4     5 ar  
     9     4    25 1   
    10     5     6 ar  
    11     5     8 1   
    12     6     7 ar  
    13     6    26 1   
    14     7    27 1   
    15     8     9 1   
    16     8    28 1   
    17     9    10 ar  
    18     9    14 ar  
    19    10    11 ar  
    20    11    12 ar  
    21    11    29 1   
    22    12    13 ar  
    23    12    30 1   
    24    13    14 ar  
    25    13    15 1   
    26    15    16 1   
    27    15    31 1   
    28    16    17 ar  
    29    16    21 ar  
    30    17    18 ar  
    31    17    32 1   
    32    18    19 ar  
    33    18    33 1   
    34    19    20 ar  
    35    19    34 1   
    36    20    21 ar  
    37    20    35 1   
    38    21    36 1   
@<TRIPOS>SUBSTRUCTURE
     1 0BX         1 TEMP              0 ****  ****    0 ROOT
