@<TRIPOS>MOLECULE
0BY
   36    38     1     0     0
SMALL
bcc


@<TRIPOS>ATOM
      1 N01          0.0000     0.0000     0.0000 nu         1 0BY      -0.248300
      2 N02         -1.5560     0.5710    -1.6470 nb         1 0BY      -0.765000
      3 N03          0.6010     1.3960    -1.7760 nb         1 0BY      -0.699000
      4 C05          3.6680     0.0000     0.0000 ca         1 0BY      -0.062000
      5 C06          3.9310     0.0000     1.3730 ca         1 0BY      -0.100600
      6 C07          2.8700     0.0000     2.2850 ca         1 0BY      -0.062000
      7 C08          1.5720     0.0020     1.8280 ca         1 0BY      -0.143500
      8 C09          1.3140    -0.0000     0.4590 ca         1 0BY      -0.067400
      9 C10          2.3680    -0.0010    -0.4500 ca         1 0BY      -0.143500
     10 C12         -0.3260     0.6710    -1.1680 ca         1 0BY       0.731900
     11 C13         -1.8990     1.2030    -2.7650 ca         1 0BY       0.560200
     12 C14         -0.9430     1.9740    -3.4290 ca         1 0BY      -0.502600
     13 C15          0.3270     2.0520    -2.8940 ca         1 0BY       0.526200
     14 C16         -4.0990     0.2170    -2.6720 ca         1 0BY       0.026600
     15 C17         -3.6410    -0.8260    -1.8780 ca         1 0BY      -0.140000
     16 C18         -4.5420    -1.6950    -1.2930 ca         1 0BY      -0.071000
     17 C19         -5.9000    -1.5250    -1.4960 ca         1 0BY      -0.133000
     18 C20         -6.3600    -0.4880    -2.2860 ca         1 0BY      -0.078000
     19 C21         -5.4640     0.3880    -2.8690 ca         1 0BY      -0.088600
     20 O25          6.2440    -0.0010     1.0670 o          1 0BY      -0.885300
     21 O26          5.5730     0.0010     3.1840 o          1 0BY      -0.885300
     22 Cl2         -6.0420     1.6940    -3.8550 cl         1 0BY      -0.048400
     23 H1          -0.7100    -0.4840     0.5130 hn         1 0BY       0.278800
     24 H2          -3.4640     1.6440    -4.0560 hn         1 0BY       0.291800
     25 H3           4.4870    -0.0000    -0.7090 ha         1 0BY       0.126000
     26 H4           3.0690     0.0010     3.3500 ha         1 0BY       0.126000
     27 H5           0.7500     0.0020     2.5330 ha         1 0BY       0.101000
     28 H6           2.1650    -0.0010    -1.5140 ha         1 0BY       0.101000
     29 H7          -1.1930     2.5010    -4.3420 ha         1 0BY       0.121000
     30 H8           1.0920     2.6420    -3.3840 h4         1 0BY      -0.022900
     31 H9          -2.5780    -0.9600    -1.7180 ha         1 0BY       0.175000
     32 H10         -4.1850    -2.5090    -0.6730 ha         1 0BY       0.102000
     33 H11         -6.6040    -2.2090    -1.0380 ha         1 0BY       0.101000
     34 H12         -7.4240    -0.3570    -2.4410 ha         1 0BY       0.107000
     35 C11          5.3220    -0.0000     1.8600 c          1 0BY       0.972200
     36 N04         -3.1880     1.0970    -3.2640 nu         1 0BY      -0.301300
@<TRIPOS>BOND
     1     1     8 1   
     2     1    10 1   
     3     1    23 1   
     4     2    10 ar  
     5     2    11 ar  
     6     3    10 ar  
     7     3    13 ar  
     8     4     5 ar  
     9     4     9 ar  
    10     4    25 1   
    11     5     6 ar  
    12     5    35 1   
    13     6     7 ar  
    14     6    26 1   
    15     7     8 ar  
    16     7    27 1   
    17     8     9 ar  
    18     9    28 1   
    19    11    12 ar  
    20    11    36 1   
    21    12    13 ar  
    22    12    29 1   
    23    13    30 1   
    24    14    15 ar  
    25    14    19 ar  
    26    14    36 1   
    27    15    16 ar  
    28    15    31 1   
    29    16    17 ar  
    30    16    32 1   
    31    17    18 ar  
    32    17    33 1   
    33    18    19 ar  
    34    18    34 1   
    35    19    22 1   
    36    20    35 1   
    37    21    35 1   
    38    24    36 1   
@<TRIPOS>SUBSTRUCTURE
     1 0BY         1 TEMP              0 ****  ****    0 ROOT
