@<TRIPOS>MOLECULE
molecule
   36    38     1     0     0
SMALL
bcc


@<TRIPOS>ATOM
      1 N01          0.0000     0.0000     0.0000 nu         1 0BY      -0.736300
      2 N02         -1.5560     0.5710    -1.6470 nb         1 0BY      -0.870000
      3 N03          0.6010     1.3960    -1.7760 nb         1 0BY      -0.789000
      4 C05          3.6680     0.0000     0.0000 ca         1 0BY      -0.089000
      5 C06          3.9310     0.0000     1.3730 ca         1 0BY      -0.108600
      6 C07          2.8700     0.0000     2.2850 ca         1 0BY      -0.089000
      7 C08          1.5720     0.0020     1.8280 ca         1 0BY      -0.167000
      8 C09          1.3140    -0.0000     0.4590 ca         1 0BY       0.105600
      9 C10          2.3680    -0.0010    -0.4500 ca         1 0BY      -0.167000
     10 C12         -0.3260     0.6710    -1.1680 ca         1 0BY       0.969900
     11 C13         -1.8990     1.2030    -2.7650 ca         1 0BY       0.750200
     12 C14         -0.9430     1.9740    -3.4290 ca         1 0BY      -0.507600
     13 C15          0.3270     2.0520    -2.8940 ca         1 0BY       0.524200
     14 C16         -4.0990     0.2170    -2.6720 ca         1 0BY       0.179600
     15 C17         -3.6410    -0.8260    -1.8780 ca         1 0BY      -0.140000
     16 C18         -4.5420    -1.6950    -1.2930 ca         1 0BY      -0.107000
     17 C19         -5.9000    -1.5250    -1.4960 ca         1 0BY      -0.158000
     18 C20         -6.3600    -0.4880    -2.2860 ca         1 0BY      -0.104000
     19 C21         -5.4640     0.3880    -2.8690 ca         1 0BY      -0.028600
     20 O25          6.2440    -0.0010     1.0670 o          1 0BY      -0.838800
     21 O26          5.5730     0.0010     3.1840 o          1 0BY      -0.838800
     22 Cl2         -6.0420     1.6940    -3.8550 cl         1 0BY      -0.130400
     23 H1          -0.7100    -0.4840     0.5130 hn         1 0BY       0.453800
     24 H2          -3.4640     1.6440    -4.0560 hn         1 0BY       0.463800
     25 H3           4.4870    -0.0000    -0.7090 ha         1 0BY       0.153000
     26 H4           3.0690     0.0010     3.3500 ha         1 0BY       0.153000
     27 H5           0.7500     0.0020     2.5330 ha         1 0BY       0.119000
     28 H6           2.1650    -0.0010    -1.5140 ha         1 0BY       0.119000
     29 H7          -1.1930     2.5010    -4.3420 ha         1 0BY       0.134000
     30 H8           1.0920     2.6420    -3.3840 h4         1 0BY       0.028100
     31 H9          -2.5780    -0.9600    -1.7180 ha         1 0BY       0.197000
     32 H10         -4.1850    -2.5090    -0.6730 ha         1 0BY       0.134000
     33 H11         -6.6040    -2.2090    -1.0380 ha         1 0BY       0.129000
     34 H12         -7.4240    -0.3570    -2.4410 ha         1 0BY       0.136000
     35 C11          5.3220    -0.0000     1.8600 c          1 0BY       0.882200
     36 N04         -3.1880     1.0970    -3.2640 nu         1 0BY      -0.762300
@<TRIPOS>BOND
     1    20    35 1   
     2    21    35 1   
     3    35     5 1   
     4     5     4 ar  
     5     5     6 ar  
     6     4     9 ar  
     7     6     7 ar  
     8     9     8 ar  
     9     7     8 ar  
    10    22    19 1   
    11     8     1 1   
    12    36    14 1   
    13    36    11 1   
    14    19    14 ar  
    15    19    18 ar  
    16    14    15 ar  
    17    18    17 ar  
    18     2    11 ar  
    19     2    10 ar  
    20    11    12 ar  
    21    15    16 ar  
    22     1    10 1   
    23    17    16 ar  
    24    10     3 ar  
    25    12    13 ar  
    26     3    13 ar  
    27     1    23 1   
    28    36    24 1   
    29     4    25 1   
    30     6    26 1   
    31     7    27 1   
    32     9    28 1   
    33    12    29 1   
    34    13    30 1   
    35    15    31 1   
    36    16    32 1   
    37    17    33 1   
    38    18    34 1   
@<TRIPOS>SUBSTRUCTURE
     1 0BY         1 TEMP              0 ****  ****    0 ROOT
