@<TRIPOS>MOLECULE
0BY
   36    38     1     0     0
SMALL
bcc


@<TRIPOS>ATOM
      1 N01         -0.0570    -0.4730    -0.1540 nu         1 0BY      -0.686300
      2 N02          0.2510     0.2580    -2.4210 nb         1 0BY      -0.768000
      3 N03         -1.9990    -0.0370    -1.4620 nb         1 0BY      -0.779000
      4 C05          3.6730    -0.4610    -0.0160 ca         1 0BY      -0.104000
      5 C06          3.9060     0.3220     1.1150 ca         1 0BY      -0.118600
      6 C07          2.8130     0.8630     1.8010 ca         1 0BY      -0.104000
      7 C08          1.5130     0.6310     1.3680 ca         1 0BY      -0.153000
      8 C09          1.2810    -0.1690     0.2260 ca         1 0BY       0.067600
      9 C10          2.3780    -0.7140    -0.4650 ca         1 0BY      -0.153000
     10 C12         -0.6010    -0.0500    -1.3740 ca         1 0BY       0.899900
     11 C13         -0.3270     0.5490    -3.6240 ca         1 0BY       0.691200
     12 C14         -1.7410     0.5640    -3.7940 ca         1 0BY      -0.461600
     13 C15         -2.5090     0.2590    -2.6610 ca         1 0BY       0.472200
     14 C16          0.3440     1.8130    -5.6240 ca         1 0BY       0.171600
     15 C17         -0.5910     2.8510    -5.4080 ca         1 0BY      -0.171000
     16 C18         -0.7740     3.8540    -6.3510 ca         1 0BY      -0.102000
     17 C19         -0.0270     3.8690    -7.5280 ca         1 0BY      -0.161000
     18 C20          0.9160     2.8720    -7.7570 ca         1 0BY      -0.099000
     19 C21          1.1060     1.8530    -6.8230 ca         1 0BY      -0.028600
     20 O25          6.2760     0.0720     0.9480 o          1 0BY      -0.827800
     21 O26          5.4710     1.2970     2.6340 o          1 0BY      -0.827800
     22 Cl2          2.2810     0.6640    -7.1490 cl         1 0BY      -0.091400
     23 H1          -0.7020    -0.4630     0.6110 hn         1 0BY       0.429800
     24 H2           1.4920     0.4960    -4.5820 hn         1 0BY       0.451800
     25 H3           4.5440    -0.8800    -0.5480 ha         1 0BY       0.155500
     26 H4           3.0120     1.4810     2.6920 ha         1 0BY       0.155500
     27 H5           0.6700     1.0680     1.9230 ha         1 0BY       0.117000
     28 H6           2.2220    -1.3360    -1.3570 ha         1 0BY       0.117000
     29 H7          -2.2060     0.7800    -4.7600 ha         1 0BY       0.153000
     30 H8          -3.6130     0.2560    -2.7200 h4         1 0BY       0.014100
     31 H9          -1.1760     2.8750    -4.4750 ha         1 0BY       0.153000
     32 H10         -1.5100     4.6490    -6.1580 ha         1 0BY       0.131000
     33 H11         -0.1740     4.6670    -8.2700 ha         1 0BY       0.132000
     34 H12          1.5180     2.8840    -8.6790 ha         1 0BY       0.142000
     35 C11          5.3250     0.5840     1.6020 c          1 0BY       0.908200
     36 N04          0.5310     0.7480    -4.7300 nu         1 0BY      -0.724300
@<TRIPOS>BOND
     1     1     8 1   
     2     1    10 1   
     3     1    23 1   
     4     2    10 ar  
     5     2    11 ar  
     6     3    10 ar  
     7     3    13 ar  
     8     4     5 ar  
     9     4     9 ar  
    10     4    25 1   
    11     5     6 ar  
    12     5    35 1   
    13     6     7 ar  
    14     6    26 1   
    15     7     8 ar  
    16     7    27 1   
    17     8     9 ar  
    18     9    28 1   
    19    11    12 ar  
    20    11    36 1   
    21    12    13 ar  
    22    12    29 1   
    23    13    30 1   
    24    14    15 ar  
    25    14    19 ar  
    26    14    36 1   
    27    15    16 ar  
    28    15    31 1   
    29    16    17 ar  
    30    16    32 1   
    31    17    18 ar  
    32    17    33 1   
    33    18    19 ar  
    34    18    34 1   
    35    19    22 1   
    36    20    35 1   
    37    21    35 1   
    38    24    36 1   
@<TRIPOS>SUBSTRUCTURE
     1 0BY         1 TEMP              0 ****  ****    0 ROOT
