@<TRIPOS>MOLECULE
0BZ
   36    38     1     0     0
SMALL
bcc


@<TRIPOS>ATOM
      1 F24          0.2940    -1.1310     0.0560 f          1 0BZ      -0.162900
      2 N02          2.9500     2.5170    -1.4710 nb         1 0BZ      -0.767000
      3 N03          2.7630     3.8070    -3.5640 nb         1 0BZ      -0.787000
      4 N04          2.2710     0.2080    -1.4440 nu         1 0BZ      -0.711300
      5 C05          4.5390     4.2640     1.9920 ca         1 0BZ      -0.107500
      6 C06          5.8990     4.5830     1.9860 ca         1 0BZ      -0.120600
      7 C07          6.4930     4.9920     0.7880 ca         1 0BZ      -0.107500
      8 C08          5.7560     5.0550    -0.3890 ca         1 0BZ      -0.151000
      9 C09          4.3860     4.7150    -0.3840 ca         1 0BZ       0.066600
     10 C10          3.7790     4.3300     0.8260 ca         1 0BZ      -0.151000
     11 C12          3.1230     3.6710    -2.2200 ca         1 0BZ       0.899900
     12 C13          2.3900     1.4470    -2.1030 ca         1 0BZ       0.699200
     13 C14          1.9680     1.5210    -3.4690 ca         1 0BZ      -0.484600
     14 C15          2.1940     2.7350    -4.1280 ca         1 0BZ       0.479200
     15 C16          2.3910     0.0670    -0.0430 ca         1 0BZ       0.099600
     16 C17          3.5180     0.5350     0.6620 ca         1 0BZ      -0.086000
     17 C18          3.6300     0.3360     2.0360 ca         1 0BZ      -0.114000
     18 C19          2.6450    -0.3530     2.7400 ca         1 0BZ      -0.125000
     19 C20          1.5310    -0.8500     2.0710 ca         1 0BZ      -0.155000
     20 C21          1.3920    -0.6400     0.6910 ca         1 0BZ       0.058900
     21 O25          6.1880     3.9130     4.2590 o          1 0BZ      -0.828800
     22 O26          7.9010     4.9270     3.2440 o          1 0BZ      -0.828800
     23 H1           3.9480     5.5270    -2.2070 hn         1 0BZ       0.426800
     24 H2           1.5570    -0.3710    -1.8420 hn         1 0BZ       0.421800
     25 H3           4.0810     3.9510     2.9440 ha         1 0BZ       0.154000
     26 H4           7.5630     5.2570     0.8010 ha         1 0BZ       0.154000
     27 H5           6.2470     5.3710    -1.3210 ha         1 0BZ       0.118500
     28 H6           2.7120     4.0660     0.8540 ha         1 0BZ       0.118500
     29 H7           1.5060     0.6740    -3.9820 ha         1 0BZ       0.142000
     30 H8           1.9040     2.8570    -5.1880 h4         1 0BZ       0.011100
     31 H9           4.3200     1.0800     0.1360 ha         1 0BZ       0.175000
     32 H10          4.5070     0.7440     2.5680 ha         1 0BZ       0.169000
     33 H11          2.7430    -0.4990     3.8250 ha         1 0BZ       0.139000
     34 H12          0.7460    -1.3990     2.6110 ha         1 0BZ       0.137000
     35 N01          3.6200     4.8190    -1.5800 nu         1 0BZ      -0.688300
     36 C11          6.7240     4.4690     3.2590 c          1 0BZ       0.907200
@<TRIPOS>BOND
     1     1    20 1   
     2     2    11 ar  
     3     2    12 ar  
     4     3    11 ar  
     5     3    14 ar  
     6     4    12 1   
     7     4    15 1   
     8     4    24 1   
     9     5     6 ar  
    10     5    10 ar  
    11     5    25 1   
    12     6     7 ar  
    13     6    36 1   
    14     7     8 ar  
    15     7    26 1   
    16     8     9 ar  
    17     8    27 1   
    18     9    10 ar  
    19     9    35 1   
    20    10    28 1   
    21    11    35 1   
    22    12    13 ar  
    23    13    14 ar  
    24    13    29 1   
    25    14    30 1   
    26    15    16 ar  
    27    15    20 ar  
    28    16    17 ar  
    29    16    31 1   
    30    17    18 ar  
    31    17    32 1   
    32    18    19 ar  
    33    18    33 1   
    34    19    20 ar  
    35    19    34 1   
    36    21    36 1   
    37    22    36 1   
    38    23    35 1   
@<TRIPOS>SUBSTRUCTURE
     1 0BZ         1 TEMP              0 ****  ****    0 ROOT
