@<TRIPOS>MOLECULE
molecule
   36    38     1     0     0
SMALL
bcc


@<TRIPOS>ATOM
      1 F24          0.0000     0.0000     0.0000 f          1 0BZ      -0.153900
      2 N02          4.5640     0.9160    -1.4190 nb         1 0BZ      -0.871000
      3 N03          5.7500     1.2040    -3.3840 nb         1 0BZ      -0.790000
      4 N04          2.3900     0.0030    -1.4000 nu         1 0BZ      -0.762300
      5 C05          8.7480     3.4900    -3.9100 ca         1 0BZ      -0.090000
      6 C06         10.0240     3.3670    -3.3520 ca         1 0BZ      -0.108600
      7 C07         10.1850     2.7280    -2.1190 ca         1 0BZ      -0.090000
      8 C08          9.0890     2.2210    -1.4600 ca         1 0BZ      -0.166500
      9 C09          7.8200     2.3440    -2.0190 ca         1 0BZ       0.105600
     10 C10          7.6550     2.9860    -3.2430 ca         1 0BZ      -0.166500
     11 C12          5.6520     1.3050    -2.0670 ca         1 0BZ       0.970900
     12 C13          3.5280     0.4090    -2.0790 ca         1 0BZ       0.751200
     13 C14          3.6030     0.2890    -3.4690 ca         1 0BZ      -0.509600
     14 C15          4.7560     0.7070    -4.1050 ca         1 0BZ       0.524200
     15 C16          2.3760     0.0000     0.0000 ca         1 0BZ       0.136600
     16 C17          3.5700     0.0000     0.7080 ca         1 0BZ      -0.126000
     17 C18          3.5530    -0.0030     2.0900 ca         1 0BZ      -0.123000
     18 C19          2.3480    -0.0080     2.7680 ca         1 0BZ      -0.141000
     19 C20          1.1550    -0.0090     2.0670 ca         1 0BZ      -0.149000
     20 C21          1.1650     0.0010     0.6840 ca         1 0BZ       0.071900
     21 O25         12.4250     3.7920    -3.5230 o          1 0BZ      -0.838300
     22 O26         11.0540     4.4660    -5.1340 o          1 0BZ      -0.838300
     23 H1           6.6660     1.8800    -0.3500 hn         1 0BZ       0.452800
     24 H2           1.5930    -0.3220    -1.9090 hn         1 0BZ       0.461800
     25 H3           8.6190     3.9870    -4.8640 ha         1 0BZ       0.153000
     26 H4          11.1730     2.6310    -1.6840 ha         1 0BZ       0.153000
     27 H5           9.2140     1.7260    -0.5040 ha         1 0BZ       0.119500
     28 H6           6.6660     3.0810    -3.6750 ha         1 0BZ       0.119500
     29 H7           2.7750    -0.1210    -4.0360 ha         1 0BZ       0.133000
     30 H8           4.8460     0.6280    -5.1820 h4         1 0BZ       0.028100
     31 H9           4.5140     0.0040     0.1770 ha         1 0BZ       0.197000
     32 H10          4.4840    -0.0030     2.6420 ha         1 0BZ       0.134000
     33 H11          2.3390    -0.0130     3.8520 ha         1 0BZ       0.128000
     34 H12          0.2130    -0.0130     2.6020 ha         1 0BZ       0.137000
     35 N01          6.7140     1.8310    -1.3480 nu         1 0BZ      -0.735300
     36 C11         11.1960     3.9110    -4.0620 c          1 0BZ       0.882200
@<TRIPOS>BOND
     1     8     7 ar
     2     8     9 ar
     3    35     9 1
     4    35    11 1
     5     7     6 ar
     6     3    11 ar
     7     3    14 ar
     8     9    10 ar
     9    22    36 1
    10    11     2 ar
    11     6    36 1
    12     6     5 ar
    13    14    13 ar
    14    10     5 ar
    15    36    21 1
    16     2    12 ar
    17    13    12 ar
    18    12     4 1
    19     1    20 1
    20    20    19 ar
    21    20    15 ar
    22     4    15 1
    23    19    18 ar
    24    15    16 ar
    25    18    17 ar
    26    16    17 ar
    27    35    23 1
    28     4    24 1
    29     5    25 1
    30     7    26 1
    31     8    27 1
    32    10    28 1
    33    13    29 1
    34    14    30 1
    35    16    31 1
    36    17    32 1
    37    18    33 1
    38    19    34 1
@<TRIPOS>SUBSTRUCTURE
     1 0BZ         1 TEMP              0 ****  ****    0 ROOT
