@<TRIPOS>MOLECULE
0C0
   46    49     1     0     0
SMALL
bcc


@<TRIPOS>ATOM
      1 N01          0.0000     0.0000     0.0000 nb         1 0C0      -0.704000
      2 N02         -0.0720     0.0020     2.3120 nb         1 0C0      -0.767000
      3 N03          1.8900     0.0010     3.6180 nu         1 0C0      -0.311300
      4 N04         -2.0670     0.0010     1.0940 nu         1 0C0      -0.247300
      5 C05          1.3240     0.0000     0.0000 ca         1 0C0       0.526200
      6 C06         -0.6820     0.0010     1.1360 ca         1 0C0       0.733900
      7 C07          1.2560     0.0010     2.3860 ca         1 0C0       0.560200
      8 C08          2.0010     0.0000     1.2050 ca         1 0C0      -0.508600
      9 C09          1.1440     0.1390     4.7890 ca         1 0C0       0.032600
     10 C10         -0.0940     0.7650     4.7570 ca         1 0C0      -0.133000
     11 C11         -0.8320     0.9000     5.9160 ca         1 0C0      -0.074000
     12 C12         -0.3430     0.4130     7.1160 ca         1 0C0      -0.139000
     13 C13          0.8860    -0.2120     7.1640 ca         1 0C0      -0.072000
     14 C14          1.6370    -0.3610     6.0010 cp         1 0C0      -0.094000
     15 C15          2.9590    -1.0310     6.0480 cp         1 0C0      -0.022000
     16 C16         -2.7260    -0.0870    -0.1290 ca         1 0C0      -0.070400
     17 C17         -3.9220    -0.7920    -0.2240 ca         1 0C0      -0.146000
     18 C18         -4.5760    -0.8820    -1.4310 ca         1 0C0      -0.064500
     19 C19         -4.0380    -0.2640    -2.5640 ca         1 0C0      -0.100600
     20 C20         -2.8350     0.4430    -2.4650 ca         1 0C0      -0.064500
     21 C21         -2.1890     0.5330    -1.2540 ca         1 0C0      -0.146000
     22 C22         -4.7320    -0.3630    -3.8600 c          1 0C0       0.973200
     23 C23          3.2600    -2.0490     5.1430 ca         1 0C0      -0.102500
     24 C24          4.4910    -2.6690     5.1910 ca         1 0C0      -0.100500
     25 C25          5.4260    -2.2840     6.1330 ca         1 0C0      -0.110000
     26 C26          5.1340    -1.2750     7.0330 ca         1 0C0      -0.100500
     27 C27          3.9080    -0.6430     6.9920 ca         1 0C0      -0.102500
     28 O28         -4.2610     0.1710    -4.8440 o          1 0C0      -0.885300
     29 O29         -5.8910    -1.0450    -3.9530 o          1 0C0      -0.885300
     30 H1           2.8890    -0.0520     3.6660 hn         1 0C0       0.295800
     31 H2          -2.5930     0.0880     1.9410 hn         1 0C0       0.278800
     32 H3           1.8710    -0.0010    -0.9350 h4         1 0C0      -0.023900
     33 H4           3.0840    -0.0000     1.2320 ha         1 0C0       0.121000
     34 H5          -0.4820     1.1490     3.8210 ha         1 0C0       0.160000
     35 H6          -1.7970     1.3890     5.8870 ha         1 0C0       0.100000
     36 H7          -0.9280     0.5250     8.0220 ha         1 0C0       0.099000
     37 H8           1.2640    -0.5940     8.1050 ha         1 0C0       0.101000
     38 H9          -4.3390    -1.2700     0.6540 ha         1 0C0       0.106000
     39 H10         -5.5080    -1.4310    -1.5040 ha         1 0C0       0.125500
     40 H11         -2.4150     0.9250    -3.3410 ha         1 0C0       0.125500
     41 H12         -1.2570     1.0800    -1.1770 ha         1 0C0       0.106000
     42 H13          2.5280    -2.3520     4.4040 ha         1 0C0       0.115000
     43 H14          4.7250    -3.4590     4.4880 ha         1 0C0       0.101000
     44 H15          6.3910    -2.7750     6.1680 ha         1 0C0       0.099000
     45 H16          5.8710    -0.9750     7.7680 ha         1 0C0       0.101000
     46 H17          3.6800     0.1470     7.6970 ha         1 0C0       0.115000
@<TRIPOS>BOND
     1     1     5 ar  
     2     1     6 ar  
     3     2     6 ar  
     4     2     7 ar  
     5     3     7 1   
     6     3     9 1   
     7     3    30 1   
     8     4     6 1   
     9     4    16 1   
    10     4    31 1   
    11     5     8 ar  
    12     5    32 1   
    13     7     8 ar  
    14     8    33 1   
    15     9    10 ar  
    16     9    14 ar  
    17    10    11 ar  
    18    10    34 1   
    19    11    12 ar  
    20    11    35 1   
    21    12    13 ar  
    22    12    36 1   
    23    13    14 ar  
    24    13    37 1   
    25    14    15 1   
    26    15    23 ar  
    27    15    27 ar  
    28    16    17 ar  
    29    16    21 ar  
    30    17    18 ar  
    31    17    38 1   
    32    18    19 ar  
    33    18    39 1   
    34    19    20 ar  
    35    19    22 1   
    36    20    21 ar  
    37    20    40 1   
    38    21    41 1   
    39    22    28 1   
    40    22    29 1   
    41    23    24 ar  
    42    23    42 1   
    43    24    25 ar  
    44    24    43 1   
    45    25    26 ar  
    46    25    44 1   
    47    26    27 ar  
    48    26    45 1   
    49    27    46 1   
@<TRIPOS>SUBSTRUCTURE
     1 0C0         1 TEMP              0 ****  ****    0 ROOT
