@<TRIPOS>MOLECULE
0C0
   46    49     1     0     0
SMALL
bcc


@<TRIPOS>ATOM
      1 N01         -0.1810    -0.2190    -0.1770 nb         1 0C0      -0.790000
      2 N02         -0.3150    -0.1110     2.2830 nb         1 0C0      -0.767000
      3 N03          1.7170    -0.1940     3.5770 nu         1 0C0      -0.720300
      4 N04         -2.2900    -0.0350     0.9190 nu         1 0C0      -0.688300
      5 C05          1.1420    -0.3850    -0.0590 ca         1 0C0       0.478200
      6 C06         -0.8900    -0.0970     1.0220 ca         1 0C0       0.898900
      7 C07          1.0390    -0.2580     2.3450 ca         1 0C0       0.702200
      8 C08          1.8280    -0.4200     1.1600 ca         1 0C0      -0.487600
      9 C09          1.0640    -0.2840     4.8280 ca         1 0C0       0.145600
     10 C10         -0.0180     0.5640     5.1490 ca         1 0C0      -0.109000
     11 C11         -0.6290     0.4890     6.3970 ca         1 0C0      -0.098000
     12 C12         -0.1680    -0.4100     7.3580 ca         1 0C0      -0.149000
     13 C13          0.9110    -1.2360     7.0660 ca         1 0C0      -0.109000
     14 C14          1.5390    -1.1870     5.8160 cp         1 0C0      -0.106000
     15 C15          2.6750    -2.0790     5.5690 cp         1 0C0      -0.028000
     16 C16         -3.0830     0.5020     1.9740 ca         1 0C0       0.067600
     17 C17         -3.7940     1.7060     1.7770 ca         1 0C0      -0.152000
     18 C18         -4.6110     2.2050     2.7860 ca         1 0C0      -0.107000
     19 C19         -4.7340     1.5340     4.0060 ca         1 0C0      -0.120600
     20 C20         -4.0400     0.3370     4.1940 ca         1 0C0      -0.107000
     21 C21         -3.2220    -0.1850     3.1930 ca         1 0C0      -0.152000
     22 C22         -5.6020     2.1060     5.1180 c          1 0C0       0.907200
     23 C23          3.9630    -1.5630     5.3730 ca         1 0C0      -0.125500
     24 C24          5.0390    -2.4230     5.1580 ca         1 0C0      -0.134000
     25 C25          4.8410    -3.8030     5.1360 ca         1 0C0      -0.137000
     26 C26          3.5620    -4.3230     5.3330 ca         1 0C0      -0.134000
     27 C27          2.4830    -3.4680     5.5510 ca         1 0C0      -0.125500
     28 O28         -5.5580     1.5430     6.2480 o          1 0C0      -0.829300
     29 O29         -6.3110     3.1170     4.8520 o          1 0C0      -0.829300
     30 H1           2.6050    -0.6560     3.5460 hn         1 0C0       0.422800
     31 H2          -2.6220     0.2080     0.0070 hn         1 0C0       0.425800
     32 H3           1.6910    -0.4910    -1.0130 h4         1 0C0       0.010100
     33 H4           2.9120    -0.5520     1.1970 ha         1 0C0       0.142000
     34 H5          -0.4050     1.2860     4.4110 ha         1 0C0       0.170000
     35 H6          -1.4920     1.1400     6.6150 ha         1 0C0       0.163000
     36 H7          -0.6610    -0.4690     8.3390 ha         1 0C0       0.135000
     37 H8           1.2830    -1.9450     7.8210 ha         1 0C0       0.126000
     38 H9          -3.7070     2.2550     0.8280 ha         1 0C0       0.119000
     39 H10         -5.1750     3.1410     2.6470 ha         1 0C0       0.154000
     40 H11         -4.1490    -0.1850     5.1590 ha         1 0C0       0.154000
     41 H12         -2.6790    -1.1250     3.3670 ha         1 0C0       0.119000
     42 H13          4.1250    -0.4750     5.4040 ha         1 0C0       0.142000
     43 H14          6.0470    -2.0100     5.0080 ha         1 0C0       0.127000
     44 H15          5.6900    -4.4790     4.9640 ha         1 0C0       0.125000
     45 H16          3.4020    -5.4110     5.3160 ha         1 0C0       0.127000
     46 H17          1.4740    -3.8770     5.7080 ha         1 0C0       0.142000
@<TRIPOS>BOND
     1     1     5 ar  
     2     1     6 ar  
     3     2     6 ar  
     4     2     7 ar  
     5     3     7 1   
     6     3     9 1   
     7     3    30 1   
     8     4     6 1   
     9     4    16 1   
    10     4    31 1   
    11     5     8 ar  
    12     5    32 1   
    13     7     8 ar  
    14     8    33 1   
    15     9    10 ar  
    16     9    14 ar  
    17    10    11 ar  
    18    10    34 1   
    19    11    12 ar  
    20    11    35 1   
    21    12    13 ar  
    22    12    36 1   
    23    13    14 ar  
    24    13    37 1   
    25    14    15 1   
    26    15    23 ar  
    27    15    27 ar  
    28    16    17 ar  
    29    16    21 ar  
    30    17    18 ar  
    31    17    38 1   
    32    18    19 ar  
    33    18    39 1   
    34    19    20 ar  
    35    19    22 1   
    36    20    21 ar  
    37    20    40 1   
    38    21    41 1   
    39    22    28 1   
    40    22    29 1   
    41    23    24 ar  
    42    23    42 1   
    43    24    25 ar  
    44    24    43 1   
    45    25    26 ar  
    46    25    44 1   
    47    26    27 ar  
    48    26    45 1   
    49    27    46 1   
@<TRIPOS>SUBSTRUCTURE
     1 0C0         1 TEMP              0 ****  ****    0 ROOT
