@<TRIPOS>MOLECULE
molecule
   46    49     1     0     0
SMALL
bcc


@<TRIPOS>ATOM
      1 N01          0.0000     0.0000     0.0000 nb         1 0C0      -0.794000
      2 N02         -0.0720     0.0020     2.3120 nb         1 0C0      -0.868000
      3 N03          1.8900     0.0010     3.6180 nu         1 0C0      -0.767300
      4 N04         -2.0670     0.0010     1.0940 nu         1 0C0      -0.736300
      5 C05          1.3240     0.0000     0.0000 ca         1 0C0       0.523200
      6 C06         -0.6820     0.0010     1.1360 ca         1 0C0       0.971900
      7 C07          1.2560     0.0010     2.3860 ca         1 0C0       0.748200
      8 C08          2.0010     0.0000     1.2050 ca         1 0C0      -0.512600
      9 C09          1.1440     0.1390     4.7890 ca         1 0C0       0.181600
     10 C10         -0.0940     0.7650     4.7570 ca         1 0C0      -0.138000
     11 C11         -0.8320     0.9000     5.9160 ca         1 0C0      -0.108000
     12 C12         -0.3430     0.4130     7.1160 ca         1 0C0      -0.163000
     13 C13          0.8860    -0.2120     7.1640 ca         1 0C0      -0.099000
     14 C14          1.6370    -0.3610     6.0010 cp         1 0C0      -0.097000
     15 C15          2.9590    -1.0310     6.0480 cp         1 0C0      -0.033000
     16 C16         -2.7260    -0.0870    -0.1290 ca         1 0C0       0.101600
     17 C17         -3.9220    -0.7920    -0.2240 ca         1 0C0      -0.167000
     18 C18         -4.5760    -0.8820    -1.4310 ca         1 0C0      -0.092000
     19 C19         -4.0380    -0.2640    -2.5640 ca         1 0C0      -0.108600
     20 C20         -2.8350     0.4430    -2.4650 ca         1 0C0      -0.092000
     21 C21         -2.1890     0.5330    -1.2540 ca         1 0C0      -0.167000
     22 C22         -4.7320    -0.3630    -3.8600 c          1 0C0       0.882200
     23 C23          3.2600    -2.0490     5.1430 ca         1 0C0      -0.123000
     24 C24          4.4910    -2.6690     5.1910 ca         1 0C0      -0.131500
     25 C25          5.4260    -2.2840     6.1330 ca         1 0C0      -0.134000
     26 C26          5.1340    -1.2750     7.0330 ca         1 0C0      -0.131500
     27 C27          3.9080    -0.6430     6.9920 ca         1 0C0      -0.123000
     28 O28         -4.2610     0.1710    -4.8440 o          1 0C0      -0.838800
     29 O29         -5.8910    -1.0450    -3.9530 o          1 0C0      -0.838800
     30 H1           2.8890    -0.0520     3.6660 hn         1 0C0       0.461800
     31 H2          -2.5930     0.0880     1.9410 hn         1 0C0       0.453800
     32 H3           1.8710    -0.0010    -0.9350 h4         1 0C0       0.026100
     33 H4           3.0840    -0.0000     1.2320 ha         1 0C0       0.132000
     34 H5          -0.4820     1.1490     3.8210 ha         1 0C0       0.180000
     35 H6          -1.7970     1.3890     5.8870 ha         1 0C0       0.130000
     36 H7          -0.9280     0.5250     8.0220 ha         1 0C0       0.124000
     37 H8           1.2640    -0.5940     8.1050 ha         1 0C0       0.128000
     38 H9          -4.3390    -1.2700     0.6540 ha         1 0C0       0.123500
     39 H10         -5.5080    -1.4310    -1.5040 ha         1 0C0       0.152500
     40 H11         -2.4150     0.9250    -3.3410 ha         1 0C0       0.152500
     41 H12         -1.2570     1.0800    -1.1770 ha         1 0C0       0.123500
     42 H13          2.5280    -2.3520     4.4040 ha         1 0C0       0.141500
     43 H14          4.7250    -3.4590     4.4880 ha         1 0C0       0.128000
     44 H15          6.3910    -2.7750     6.1680 ha         1 0C0       0.125000
     45 H16          5.8710    -0.9750     7.7680 ha         1 0C0       0.128000
     46 H17          3.6800     0.1470     7.6970 ha         1 0C0       0.141500
@<TRIPOS>BOND
     1    28    22 1   
     2    29    22 1   
     3    22    19 1   
     4    12    11 ar  
     5    12    13 ar  
     6    11    10 ar  
     7    13    14 ar  
     8    19    20 ar  
     9    19    18 ar  
    10    20    21 ar  
    11    18    17 ar  
    12    10     9 ar  
    13    14     9 ar  
    14    14    15 1   
    15    21    16 ar  
    16     9     3 1   
    17    15    27 ar  
    18    15    23 ar  
    19    27    26 ar  
    20    17    16 ar  
    21    16     4 1   
    22    23    24 ar  
    23    26    25 ar  
    24     3     7 1   
    25    24    25 ar  
    26     2     7 ar  
    27     2     6 ar  
    28     4     6 1   
    29     7     8 ar  
    30     6     1 ar  
    31     8     5 ar  
    32     1     5 ar  
    33     3    30 1   
    34     4    31 1   
    35     5    32 1   
    36     8    33 1   
    37    10    34 1   
    38    11    35 1   
    39    12    36 1   
    40    13    37 1   
    41    17    38 1   
    42    18    39 1   
    43    20    40 1   
    44    21    41 1   
    45    23    42 1   
    46    24    43 1   
    47    25    44 1   
    48    26    45 1   
    49    27    46 1   
@<TRIPOS>SUBSTRUCTURE
     1 0C0         1 TEMP              0 ****  ****    0 ROOT
