@<TRIPOS>MOLECULE
0C1
   55    59     1     0     0
SMALL
bcc


@<TRIPOS>ATOM
      1 C1           0.1390     0.2110     0.0120 ca         1 0C1      -0.025000
      2 C2           1.5350     0.1310    -0.0160 ca         1 0C1      -0.186000
      3 C3           4.5030    -4.9470     0.1510 ca         1 0C1      -0.123000
      4 C4           5.6080    -4.3020     0.6850 ca         1 0C1      -0.126000
      5 C5           3.3990    -2.7910    -0.1520 ca         1 0C1      -0.132000
      6 C6           1.5510    -0.1000     2.4690 ca         1 0C1      -0.144800
      7 C7           2.5810    -0.2100     3.4920 cc         1 0C1       0.133800
      8 C8          -0.5350     0.1410     1.2210 ca         1 0C1      -0.176300
      9 C9           4.5070    -2.1360     0.3860 ca         1 0C1      -0.138300
     10 C10          2.2290    -0.0140     1.1890 ca         1 0C1       0.008800
     11 C11          0.1660    -0.0150     2.4440 ca         1 0C1       0.190100
     12 C12          3.3900    -4.1910    -0.2680 ca         1 0C1       0.130900
     13 C13          5.6140    -2.9000     0.8100 ca         1 0C1       0.114900
     14 C14          3.8060    -0.1850     2.8180 cd         1 0C1      -0.234300
     15 C15          1.0380    -1.0150     6.8270 cd         1 0C1      -0.239000
     16 C16          1.2740    -0.9780     5.4290 cd         1 0C1       0.047000
     17 C17          1.8850    -0.3350     7.6740 cc         1 0C1       0.039600
     18 C18          2.3500    -0.2870     4.9120 cc         1 0C1      -0.210200
     19 C19          3.2660     0.3950     5.8270 c          1 0C1       0.717700
     20 C20          5.1300    -0.1530     3.4330 c          1 0C1       0.658300
     21 C21         -1.9960     0.2120     1.5200 c3         1 0C1      -0.054100
     22 C22         -2.0460     0.0880     3.0530 c3         1 0C1       0.120400
     23 C23          8.2710    -0.1900     3.4160 c3         1 0C1      -0.458300
     24 N1           3.6330    -0.0050     1.4060 na         1 0C1      -0.053400
     25 N2           2.9670     0.3570     7.1950 ns         1 0C1      -0.403100
     26 N3           5.8920     1.1330     3.2180 ny         1 0C1      -0.630700
     27 O1           4.3110     1.0110     5.4860 o          1 0C1      -0.760500
     28 O2           5.6870    -1.0100     4.1050 o          1 0C1      -0.451100
     29 O3           7.5210     0.9590     1.2830 o          1 0C1      -0.571800
     30 O4           8.1200     2.3210     3.1700 o          1 0C1      -0.571800
     31 O5          -0.6720    -0.0600     3.5380 os         1 0C1      -0.326900
     32 F1           2.3070    -4.8140    -0.7860 f          1 0C1      -0.120900
     33 F2           6.7050    -2.2910     1.3430 f          1 0C1      -0.164900
     34 S1           7.6660     1.1230     2.6490 s6         1 0C1       1.409900
     35 C24          4.5240    -0.6360     0.4540 c3         1 0C1       0.057600
     36 H1          -0.4190     0.3320    -0.9300 ha         1 0C1       0.158000
     37 H2           2.0690     0.1970    -0.9750 ha         1 0C1       0.153000
     38 H5           2.5240    -2.2100    -0.4870 ha         1 0C1       0.164000
     39 H6           0.1800    -1.5730     7.2260 ha         1 0C1       0.175000
     40 H7           0.5720    -1.5050     4.7570 ha         1 0C1       0.174000
     41 H8           1.7350    -0.3160     8.7710 h4         1 0C1       0.177000
     42 H10         -2.4390     1.1810     1.1800 hc         1 0C1       0.079200
     43 H11         -2.5580    -0.6210     1.0290 hc         1 0C1       0.079200
     44 H12         -2.5890    -0.8250     3.3970 h1         1 0C1       0.074700
     45 H13         -2.4460     1.0060     3.5500 h1         1 0C1       0.074700
     46 H14          7.9370    -1.1830     2.9910 h1         1 0C1       0.179367
     47 H15          8.0400    -0.2770     4.5160 h1         1 0C1       0.179367
     48 H16          9.3990    -0.2310     3.3710 h1         1 0C1       0.179367
     49 H19          5.3510     1.6970     2.5550 hn         1 0C1       0.485800
     50 H9           3.5720     0.8450     7.8240 hn         1 0C1       0.351500
     51 H3           4.4870    -6.0440     0.0480 ha         1 0C1       0.171000
     52 H17          4.2430    -0.2310    -0.5650 h1         1 0C1       0.084700
     53 H18          5.5710    -0.2820     0.6860 h1         1 0C1       0.084700
     54 H32          5.8300     1.6280     4.1220 hn         1 0C1       0.485800
     55 H4           6.4870    -4.8790     1.0140 ha         1 0C1       0.165000
@<TRIPOS>BOND
     1     1     2 ar  
     2     1     8 ar  
     3     1    36 1   
     4     2    10 ar  
     5     2    37 1   
     6     3     4 ar  
     7     3    12 ar  
     8     3    51 1   
     9     4    13 ar  
    10     4    55 1   
    11     5     9 ar  
    12     5    12 ar  
    13     5    38 1   
    14     6     7 1   
    15     6    10 ar  
    16     6    11 ar  
    17     7    14 2   
    18     7    18 1   
    19     8    11 ar  
    20     8    21 1   
    21     9    13 ar  
    22     9    35 1   
    23    10    24 1   
    24    11    31 1   
    25    12    32 1   
    26    13    33 1   
    27    14    20 1   
    28    14    24 1   
    29    15    16 1   
    30    15    17 2   
    31    15    39 1   
    32    16    18 2   
    33    16    40 1   
    34    17    25 1   
    35    17    41 1   
    36    18    19 1   
    37    19    25 1   
    38    19    27 2   
    39    20    26 1   
    40    20    28 2   
    41    21    22 1   
    42    21    42 1   
    43    21    43 1   
    44    22    31 1   
    45    22    44 1   
    46    22    45 1   
    47    23    34 1   
    48    23    46 1   
    49    23    47 1   
    50    23    48 1   
    51    24    35 1   
    52    25    50 1   
    53    26    34 1   
    54    26    49 1   
    55    26    54 1   
    56    29    34 2   
    57    30    34 2   
    58    35    52 1   
    59    35    53 1   
@<TRIPOS>SUBSTRUCTURE
     1 0C1         1 TEMP              0 ****  ****    0 ROOT
