@<TRIPOS>MOLECULE
molecule
   54    58     1     0     0
SMALL
bcc


@<TRIPOS>ATOM
      1 C1           0.0000     0.0000     0.0000 ca         1 0C1      -0.041000
      2 C2           1.3780     0.0000     0.0000 ca         1 0C1      -0.193000
      3 C3           5.3140     4.0190    -0.7020 ca         1 0C1      -0.131000
      4 C4           4.3370     3.2860    -1.3480 ca         1 0C1      -0.136000
      5 C5           5.7550     2.1570     0.7440 ca         1 0C1      -0.139000
      6 C6           1.3540    -0.0050     2.4170 ca         1 0C1      -0.117800
      7 C7           2.3490    -0.0050     3.4960 cc         1 0C1       0.056800
      8 C8          -0.7070    -0.0050     1.1900 ca         1 0C1      -0.217300
      9 C9           4.7820     1.4220     0.0940 ca         1 0C1      -0.145300
     10 C10          2.0710     0.0000     1.2100 ca         1 0C1       0.023800
     11 C11         -0.0520    -0.0200     2.4080 ca         1 0C1       0.193100
     12 C12          6.0260     3.4540     0.3420 ca         1 0C1       0.138900
     13 C13          4.0690     1.9860    -0.9500 ca         1 0C1       0.139900
     14 C14          3.5920     0.0040     2.8820 cd         1 0C1      -0.147300
     15 C15          1.7060    -1.1890     7.0070 cd         1 0C1      -0.244000
     16 C16          1.9600    -1.2180     5.6340 cd         1 0C1      -0.014000
     17 C17          1.5740    -0.0040     7.6510 cc         1 0C1       0.009600
     18 C18          2.0800    -0.0160     4.9470 cc         1 0C1      -0.145200
     19 C19          1.9400     1.2000     5.6640 c          1 0C1       0.700700
     20 C20          4.8830     0.0090     3.5720 c          1 0C1       0.721300
     21 C21         -2.1950     0.0100     1.4840 c3         1 0C1      -0.057100
     22 C22         -2.2210     0.3980     2.9810 c3         1 0C1       0.130400
     23 C23          7.5740    -1.6790     4.1760 c3         1 0C1      -0.240300
     24 N1           3.4130     0.0030     1.5100 na         1 0C1      -0.067400
     25 N2           1.6890     1.1730     6.9870 ns         1 0C1      -0.401100
     26 N3           6.0210     0.1700     2.8700 ns         1 0C1      -0.686300
     27 O1           2.0410     2.2680     5.0820 o          1 0C1      -0.649500
     28 O2           4.9270    -0.1340     4.7810 o          1 0C1      -0.553100
     29 O3           7.3740     0.9190     4.7500 o          1 0C1      -0.606300
     30 O4           8.4370     0.2980     2.6050 o          1 0C1      -0.606300
     31 O5          -0.9340    -0.0490     3.4440 os         1 0C1      -0.306900
     32 F1           6.9850     4.1690     0.9690 f          1 0C1      -0.125900
     33 F2           3.1130     1.2700    -1.5810 f          1 0C1      -0.133900
     34 S1           7.4870     0.0490     3.6320 s6         1 0C1       1.309600
     35 H1          -0.5360     0.0030    -0.9420 ha         1 0C1       0.134000
     36 H2           1.9190    -0.0960    -0.9340 ha         1 0C1       0.149000
     37 H4           3.7790     3.7280    -2.1650 ha         1 0C1       0.156000
     38 H5           6.3120     1.7150     1.5610 ha         1 0C1       0.159000
     39 H6           1.6100    -2.1170     7.5580 ha         1 0C1       0.144000
     40 H7           2.0670    -2.1620     5.1140 ha         1 0C1       0.139000
     41 H8           1.3750     0.0030     8.7160 h4         1 0C1       0.148000
     42 H10         -2.6270    -0.9710     1.3330 hc         1 0C1       0.059700
     43 H11         -2.6980     0.7590     0.8840 hc         1 0C1       0.059700
     44 H12         -2.3180     1.4700     3.0980 h1         1 0C1       0.062200
     45 H13         -3.0160    -0.1260     3.4980 h1         1 0C1       0.062200
     46 H14          6.9840    -1.8050     5.0760 h1         1 0C1       0.103367
     47 H15          8.6050    -1.9420     4.3810 h1         1 0C1       0.103367
     48 H16          7.1850    -2.3230     3.3960 h1         1 0C1       0.103367
     49 H19          5.9830     0.3090     1.8800 hn         1 0C1       0.363500
     50 H9           1.5890     2.0330     7.4880 hn         1 0C1       0.336500
     51 C24          4.4960     0.0060     0.5220 c3         1 0C1       0.093600
     52 H3           5.5250     5.0350    -1.0150 ha         1 0C1       0.157000
     53 H17          4.2000    -0.5790    -0.3400 h1         1 0C1       0.074700
     54 H18          5.3870    -0.4250     0.9620 h1         1 0C1       0.074700
@<TRIPOS>BOND
     1    29    34 2   
     2    30    34 2   
     3    34    23 1   
     4    34    26 1   
     5    33    13 1   
     6     4    13 ar  
     7     4     3 ar  
     8    13     9 ar  
     9    26    20 1   
    10     3    12 ar  
    11     9    51 1   
    12     9     5 ar  
    13    20    28 2   
    14    20    14 1   
    15    51    24 1   
    16    12     5 ar  
    17    12    32 1   
    18    27    19 2   
    19    14    24 1   
    20    14     7 2   
    21    24    10 1   
    22    19    25 1   
    23    19    18 1   
    24     7    18 1   
    25     7     6 1   
    26    25    17 1   
    27    10     2 ar  
    28    10     6 ar  
    29    18    16 2   
    30     2     1 ar  
    31     6    11 ar  
    32    17    15 2   
    33    16    15 1   
    34     1     8 ar  
    35    11     8 ar  
    36    11    31 1   
    37     8    21 1   
    38    31    22 1   
    39    21    22 1   
    40     1    35 1   
    41     2    36 1   
    42     3    52 1   
    43     4    37 1   
    44     5    38 1   
    45    15    39 1   
    46    16    40 1   
    47    17    41 1   
    48    21    42 1   
    49    21    43 1   
    50    22    44 1   
    51    22    45 1   
    52    23    46 1   
    53    23    47 1   
    54    23    48 1   
    55    51    53 1   
    56    51    54 1   
    57    26    49 1   
    58    25    50 1   
@<TRIPOS>SUBSTRUCTURE
     1 0C1         1 TEMP              0 ****  ****    0 ROOT
