@<TRIPOS>MOLECULE
0C2
   58    62     1     0     0
SMALL
bcc


@<TRIPOS>ATOM
      1 C1           0.0330     0.0470     0.0170 ca         1 0C2      -0.023000
      2 C2           1.4280     0.0460    -0.0690 ca         1 0C2      -0.187000
      3 C3           4.6780    -4.8580    -0.0480 ca         1 0C2      -0.123000
      4 C4           5.7670    -4.1540     0.4440 ca         1 0C2      -0.126000
      5 C5           3.4450    -2.7660    -0.2940 ca         1 0C2      -0.132000
      6 C6           1.5600    -0.1900     2.4120 ca         1 0C2      -0.145800
      7 C7           2.6340    -0.2450     3.3910 cc         1 0C2       0.133800
      8 C8          -0.5870    -0.0640     1.2530 ca         1 0C2      -0.175300
      9 C9           4.5360    -2.0520     0.2010 ca         1 0C2      -0.137300
     10 C10          2.1790    -0.0620     1.1060 ca         1 0C2       0.008800
     11 C11          0.1710    -0.1830     2.4440 ca         1 0C2       0.191100
     12 C12          3.5090    -4.1650    -0.4160 ca         1 0C2       0.130900
     13 C13          5.7000    -2.7540     0.5750 ca         1 0C2       0.114900
     14 C14          3.8280    -0.1490     2.6680 cd         1 0C2      -0.235300
     15 C15          1.2800    -1.1450     6.7830 cd         1 0C2      -0.239000
     16 C16          1.4540    -1.0910     5.3770 cd         1 0C2       0.047000
     17 C17          2.1190    -0.4180     7.5980 cc         1 0C2       0.038600
     18 C18          2.4670    -0.3380     4.8200 cc         1 0C2      -0.210200
     19 C19          3.3790     0.3940     5.6990 c          1 0C2       0.717700
     20 C20          5.1710    -0.0440     3.2300 c          1 0C2       0.658300
     21 C21         -2.0130    -0.2040     3.1500 c3         1 0C2       0.119400
     22 C22         -2.0440    -0.0900     1.6080 c3         1 0C2      -0.034400
     23 C23         -2.7960     1.1330     1.1450 c3         1 0C2      -0.092100
     24 C24          8.3060     0.0940     3.0840 c3         1 0C2      -0.458300
     25 N1           3.5870     0.0240     1.2650 na         1 0C2      -0.053400
     26 N2           3.1390     0.3360     7.0780 ns         1 0C2      -0.403100
     27 N3           5.8510     1.2830     2.9890 ny         1 0C2      -0.631700
     28 O1           4.3720     1.0690     5.3190 o          1 0C2      -0.760500
     29 O2           5.8030    -0.8690     3.8750 o          1 0C2      -0.451100
     30 O3           7.4080     1.2060     0.9890 o          1 0C2      -0.571800
     31 O4           8.0060     2.5930     2.8570 o          1 0C2      -0.571800
     32 O5          -0.6150    -0.2820     3.5720 os         1 0C2      -0.326900
     33 F1           2.4420    -4.8450    -0.8930 f          1 0C2      -0.120900
     34 F2           6.7760    -2.0860     1.0650 f          1 0C2      -0.164900
     35 S1           7.5980     1.3740     2.3480 s6         1 0C2       1.409900
     36 C25          4.4720    -0.5530     0.2750 c3         1 0C2       0.057600
     37 H1          -0.5720     0.1400    -0.9000 ha         1 0C2       0.157000
     38 H2           1.9180     0.1440    -1.0490 ha         1 0C2       0.153000
     39 H5           2.5260    -2.2340    -0.5910 ha         1 0C2       0.164000
     40 H6           0.4720    -1.7520     7.2150 ha         1 0C2       0.175000
     41 H7           0.7580    -1.6560     4.7310 ha         1 0C2       0.174000
     42 H8           2.0140    -0.4100     8.7000 h4         1 0C2       0.177000
     43 H10         -2.4380     0.6970     3.6580 h1         1 0C2       0.074700
     44 H11         -2.4930    -1.1420     3.5210 h1         1 0C2       0.074700
     45 H12         -2.5250    -1.0080     1.1720 hc         1 0C2       0.080700
     46 H13         -2.7570     1.2070     0.0310 hc         1 0C2       0.049700
     47 H14         -3.8650     1.0680     1.4620 hc         1 0C2       0.049700
     48 H15         -2.3530     2.0630     1.5770 hc         1 0C2       0.049700
     49 H16          8.0110    -0.9150     2.6670 h1         1 0C2       0.179367
     50 H17          8.1250    -0.0090     4.1910 h1         1 0C2       0.179367
     51 H18          9.4310     0.1160     2.9920 h1         1 0C2       0.179367
     52 H21          5.7980     1.7720     3.8970 hn         1 0C2       0.485800
     53 H9           3.7410     0.8570     7.6830 hn         1 0C2       0.351500
     54 H3           4.7190    -5.9540    -0.1550 ha         1 0C2       0.170000
     55 H19          4.1280    -0.1620    -0.7290 h1         1 0C2       0.084200
     56 H20          5.5070    -0.1420     0.4650 h1         1 0C2       0.084200
     57 H32          5.2530     1.8160     2.3510 hn         1 0C2       0.485800
     58 H4           6.6900    -4.6820     0.7340 ha         1 0C2       0.165000
@<TRIPOS>BOND
     1     1     2 ar  
     2     1     8 ar  
     3     1    37 1   
     4     2    10 ar  
     5     2    38 1   
     6     3     4 ar  
     7     3    12 ar  
     8     3    54 1   
     9     4    13 ar  
    10     4    58 1   
    11     5     9 ar  
    12     5    12 ar  
    13     5    39 1   
    14     6     7 1   
    15     6    10 ar  
    16     6    11 ar  
    17     7    14 2   
    18     7    18 1   
    19     8    11 ar  
    20     8    22 1   
    21     9    13 ar  
    22     9    36 1   
    23    10    25 1   
    24    11    32 1   
    25    12    33 1   
    26    13    34 1   
    27    14    20 1   
    28    14    25 1   
    29    15    16 1   
    30    15    17 2   
    31    15    40 1   
    32    16    18 2   
    33    16    41 1   
    34    17    26 1   
    35    17    42 1   
    36    18    19 1   
    37    19    26 1   
    38    19    28 2   
    39    20    27 1   
    40    20    29 2   
    41    21    22 1   
    42    21    32 1   
    43    21    43 1   
    44    21    44 1   
    45    22    23 1   
    46    22    45 1   
    47    23    46 1   
    48    23    47 1   
    49    23    48 1   
    50    24    35 1   
    51    24    49 1   
    52    24    50 1   
    53    24    51 1   
    54    25    36 1   
    55    26    53 1   
    56    27    35 1   
    57    27    52 1   
    58    27    57 1   
    59    30    35 2   
    60    31    35 2   
    61    36    55 1   
    62    36    56 1   
@<TRIPOS>SUBSTRUCTURE
     1 0C2         1 TEMP              0 ****  ****    0 ROOT
