@<TRIPOS>MOLECULE
0C2
   57    61     1     0     0
SMALL
bcc


@<TRIPOS>ATOM
      1 C1           0.0000     0.0000     0.0000 ca         1 0C2      -0.002000
      2 C2           1.3780     0.0000     0.0000 ca         1 0C2      -0.165000
      3 C3           5.2460     4.0060    -0.7800 ca         1 0C2      -0.097000
      4 C4           4.6590     3.0990    -1.6410 ca         1 0C2      -0.100000
      5 C5           5.3380     2.3260     0.9280 ca         1 0C2      -0.116000
      6 C6           1.3550    -0.0050     2.4170 ca         1 0C2      -0.124800
      7 C7           2.3500    -0.0040     3.4950 cc         1 0C2       0.085800
      8 C8          -0.7070    -0.0050     1.1900 ca         1 0C2      -0.235300
      9 C9           4.7570     1.4170     0.0650 ca         1 0C2      -0.143300
     10 C10          2.0720     0.0000     1.2100 ca         1 0C2      -0.149200
     11 C11         -0.0520    -0.0190     2.4080 ca         1 0C2       0.217100
     12 C12          5.5890     3.6200     0.5040 ca         1 0C2       0.120900
     13 C13          4.4140     1.8030    -1.2190 ca         1 0C2       0.111900
     14 C14          3.5930     0.0040     2.8820 cd         1 0C2      -0.344300
     15 C15          1.7070    -1.1870     7.0080 cd         1 0C2      -0.207000
     16 C16          1.9610    -1.2160     5.6350 cd         1 0C2       0.006000
     17 C17          1.5750    -0.0010     7.6510 cc         1 0C2      -0.144400
     18 C18          2.0810    -0.0140     4.9470 cc         1 0C2      -0.138200
     19 C19          1.9420     1.2030     5.6630 c          1 0C2       0.594700
     20 C20          4.8830     0.0000     3.5720 c          1 0C2       0.710300
     21 C21         -2.2200     0.3970     2.9820 c3         1 0C2       0.206400
     22 C22         -2.1940     0.0100     1.4850 c3         1 0C2      -0.006400
     23 C23         -2.9100     1.0630     0.6350 c3         1 0C2       0.011900
     24 C24          7.5690    -1.7110     4.1290 c3         1 0C2       0.017700
     25 N1           3.4140     0.0030     1.5100 na         1 0C2       0.401600
     26 N2           1.6900     1.1760     6.9860 ns         1 0C2       0.098900
     27 N3           6.0220     0.1750     2.8720 ns         1 0C2      -0.397300
     28 O1           2.0420     2.2700     5.0820 o          1 0C2      -0.702500
     29 O2           4.9280    -0.1590     4.7780 o          1 0C2      -0.596100
     30 O3           7.3790     0.8730     4.7680 o          1 0C2      -0.563800
     31 O4           8.4370     0.3000     2.6060 o          1 0C2      -0.563800
     32 O5          -0.9330    -0.0480     3.4440 os         1 0C2      -0.294900
     33 F1           6.1690     4.5050     1.3430 f          1 0C2      -0.115900
     34 F2           3.8390     0.9160    -2.0610 f          1 0C2      -0.124900
     35 S1           7.4880     0.0300     3.6280 s6         1 0C2       0.953600
     36 H1          -0.5360     0.0060    -0.9420 ha         1 0C2       0.101000
     37 H2           1.9200    -0.0760    -0.9350 ha         1 0C2       0.116000
     38 H4           4.3900     3.4010    -2.6460 ha         1 0C2       0.125000
     39 H5           5.6070     2.0240     1.9330 ha         1 0C2       0.146000
     40 H6           1.6110    -2.1150     7.5590 ha         1 0C2       0.118000
     41 H7           2.0680    -2.1600     5.1150 ha         1 0C2       0.105000
     42 H8           1.3750     0.0070     8.7160 h4         1 0C2       0.119000
     43 H10         -2.3190     1.4700     3.0980 h1         1 0C2       0.019200
     44 H11         -3.0150    -0.1270     3.4990 h1         1 0C2       0.019200
     45 H12         -2.6240    -0.9730     1.3360 hc         1 0C2       0.036700
     46 H13         -2.9680     0.7200    -0.3910 hc         1 0C2       0.006033
     47 H14         -2.3580     1.9940     0.6740 hc         1 0C2       0.006033
     48 H15         -3.9100     1.2190     1.0210 hc         1 0C2       0.006033
     49 H16          8.6050    -2.0140     4.2160 h1         1 0C2       0.067033
     50 H17          7.0750    -2.3240     3.3850 h1         1 0C2       0.067033
     51 H18          7.0750    -1.8350     5.0850 h1         1 0C2       0.067033
     52 H21          5.9820     0.3720     1.8920 hn         1 0C2       0.276500
     53 H9           1.5900     2.0370     7.4860 hn         1 0C2       0.166500
     54 C25          4.4960     0.0050     0.5220 c3         1 0C2      -0.002400
     55 H3           5.4400     5.0190    -1.1100 ha         1 0C2       0.125000
     56 H19          5.3950    -0.4020     0.9700 h1         1 0C2       0.052200
     57 H20          4.2100    -0.6030    -0.3280 h1         1 0C2       0.052200
@<TRIPOS>BOND
     1     1     2 ar  
     2     1     8 ar  
     3     1    36 1   
     4     2    10 ar  
     5     2    37 1   
     6     3     4 ar  
     7     3    12 ar  
     8     3    55 1   
     9     4    13 ar  
    10     4    38 1   
    11     5     9 ar  
    12     5    12 ar  
    13     5    39 1   
    14     6     7 1   
    15     6    10 ar  
    16     6    11 ar  
    17     7    14 2   
    18     7    18 1   
    19     8    11 ar  
    20     8    22 1   
    21     9    13 ar  
    22     9    54 1   
    23    10    25 1   
    24    11    32 1   
    25    12    33 1   
    26    13    34 1   
    27    14    20 1   
    28    14    25 1   
    29    15    16 1   
    30    15    17 2   
    31    15    40 1   
    32    16    18 2   
    33    16    41 1   
    34    17    26 1   
    35    17    42 1   
    36    18    19 1   
    37    19    26 1   
    38    19    28 2   
    39    20    27 1   
    40    20    29 2   
    41    21    22 1   
    42    21    32 1   
    43    21    43 1   
    44    21    44 1   
    45    22    23 1   
    46    22    45 1   
    47    23    46 1   
    48    23    47 1   
    49    23    48 1   
    50    24    35 1   
    51    24    49 1   
    52    24    50 1   
    53    24    51 1   
    54    25    54 1   
    55    26    53 1   
    56    27    35 1   
    57    27    52 1   
    58    30    35 2   
    59    31    35 2   
    60    54    56 1   
    61    54    57 1   
@<TRIPOS>SUBSTRUCTURE
     1 0C2         1 TEMP              0 ****  ****    0 ROOT
