@<TRIPOS>MOLECULE
molecule
   57    61     1     0     0
SMALL
bcc


@<TRIPOS>ATOM
      1 C1           0.0000     0.0000     0.0000 ca         1 0C2      -0.038000
      2 C2           1.3780     0.0000     0.0000 ca         1 0C2      -0.190000
      3 C3           5.2460     4.0060    -0.7800 ca         1 0C2      -0.132000
      4 C4           4.6590     3.0990    -1.6410 ca         1 0C2      -0.137000
      5 C5           5.3380     2.3260     0.9280 ca         1 0C2      -0.137000
      6 C6           1.3550    -0.0050     2.4170 ca         1 0C2      -0.119800
      7 C7           2.3500    -0.0040     3.4950 cc         1 0C2       0.058800
      8 C8          -0.7070    -0.0050     1.1900 ca         1 0C2      -0.215300
      9 C9           4.7570     1.4170     0.0650 ca         1 0C2      -0.145300
     10 C10          2.0720     0.0000     1.2100 ca         1 0C2       0.025800
     11 C11         -0.0520    -0.0190     2.4080 ca         1 0C2       0.196100
     12 C12          5.5890     3.6200     0.5040 ca         1 0C2       0.138900
     13 C13          4.4140     1.8030    -1.2190 ca         1 0C2       0.134900
     14 C14          3.5930     0.0040     2.8820 cd         1 0C2      -0.151300
     15 C15          1.7070    -1.1870     7.0080 cd         1 0C2      -0.244000
     16 C16          1.9610    -1.2160     5.6350 cd         1 0C2      -0.012000
     17 C17          1.5750    -0.0010     7.6510 cc         1 0C2       0.009600
     18 C18          2.0810    -0.0140     4.9470 cc         1 0C2      -0.148200
     19 C19          1.9420     1.2030     5.6630 c          1 0C2       0.701700
     20 C20          4.8830     0.0000     3.5720 c          1 0C2       0.718300
     21 C21         -2.2200     0.3970     2.9820 c3         1 0C2       0.133400
     22 C22         -2.1940     0.0100     1.4850 c3         1 0C2      -0.048400
     23 C23         -2.9100     1.0630     0.6350 c3         1 0C2      -0.083100
     24 C24          7.5690    -1.7110     4.1290 c3         1 0C2      -0.240300
     25 N1           3.4140     0.0030     1.5100 na         1 0C2      -0.066400
     26 N2           1.6900     1.1760     6.9860 ns         1 0C2      -0.402100
     27 N3           6.0220     0.1750     2.8720 ns         1 0C2      -0.685300
     28 O1           2.0420     2.2700     5.0820 o          1 0C2      -0.649500
     29 O2           4.9280    -0.1590     4.7780 o          1 0C2      -0.550100
     30 O3           7.3790     0.8730     4.7680 o          1 0C2      -0.606300
     31 O4           8.4370     0.3000     2.6060 o          1 0C2      -0.606300
     32 O5          -0.9330    -0.0480     3.4440 os         1 0C2      -0.306900
     33 F1           6.1690     4.5050     1.3430 f          1 0C2      -0.124900
     34 F2           3.8390     0.9160    -2.0610 f          1 0C2      -0.138900
     35 S1           7.4880     0.0300     3.6280 s6         1 0C2       1.310600
     36 H1          -0.5360     0.0060    -0.9420 ha         1 0C2       0.134000
     37 H2           1.9200    -0.0760    -0.9350 ha         1 0C2       0.139000
     38 H4           4.3900     3.4010    -2.6460 ha         1 0C2       0.155000
     39 H5           5.6070     2.0240     1.9330 ha         1 0C2       0.165000
     40 H6           1.6110    -2.1150     7.5590 ha         1 0C2       0.145000
     41 H7           2.0680    -2.1600     5.1150 ha         1 0C2       0.139000
     42 H8           1.3750     0.0070     8.7160 h4         1 0C2       0.149000
     43 H10         -2.3190     1.4700     3.0980 h1         1 0C2       0.063700
     44 H11         -3.0150    -0.1270     3.4990 h1         1 0C2       0.063700
     45 H12         -2.6240    -0.9730     1.3360 hc         1 0C2       0.067700
     46 H13         -2.9680     0.7200    -0.3910 hc         1 0C2       0.039700
     47 H14         -2.3580     1.9940     0.6740 hc         1 0C2       0.039700
     48 H15         -3.9100     1.2190     1.0210 hc         1 0C2       0.039700
     49 H16          8.6050    -2.0140     4.2160 h1         1 0C2       0.103033
     50 H17          7.0750    -2.3240     3.3850 h1         1 0C2       0.103033
     51 H18          7.0750    -1.8350     5.0850 h1         1 0C2       0.103033
     52 H21          5.9820     0.3720     1.8920 hn         1 0C2       0.362500
     53 H9           1.5900     2.0370     7.4860 hn         1 0C2       0.336500
     54 C25          4.4960     0.0050     0.5220 c3         1 0C2       0.089600
     55 H3           5.4400     5.0190    -1.1100 ha         1 0C2       0.156000
     56 H19          5.3950    -0.4020     0.9700 h1         1 0C2       0.077700
     57 H20          4.2100    -0.6030    -0.3280 h1         1 0C2       0.077700
@<TRIPOS>BOND
     1    30    35 2
     2    24    35 1
     3    35    31 2
     4    35    27 1
     5    34    13 1
     6     4    13 ar
     7     4     3 ar
     8    13     9 ar
     9    27    20 1
    10     3    12 ar
    11     9    54 1
    12     9     5 ar
    13    54    25 1
    14    20    29 2
    15    20    14 1
    16    12     5 ar
    17    12    33 1
    18    25    14 1
    19    25    10 1
    20    14     7 2
    21    28    19 2
    22    19    26 1
    23    19    18 1
    24    10     2 ar
    25    10     6 ar
    26     7    18 1
    27     7     6 1
    28    26    17 1
    29     2     1 ar
    30    18    16 2
    31     6    11 ar
    32    17    15 2
    33    16    15 1
    34     1     8 ar
    35    11     8 ar
    36    11    32 1
    37     8    22 1
    38    32    21 1
    39    22    21 1
    40    22    23 1
    41     1    36 1
    42     2    37 1
    43     3    55 1
    44     4    38 1
    45     5    39 1
    46    15    40 1
    47    16    41 1
    48    17    42 1
    49    21    43 1
    50    21    44 1
    51    22    45 1
    52    23    46 1
    53    23    47 1
    54    23    48 1
    55    24    49 1
    56    24    50 1
    57    24    51 1
    58    54    56 1
    59    54    57 1
    60    27    52 1
    61    26    53 1
@<TRIPOS>SUBSTRUCTURE
     1 0C2         1 TEMP              0 ****  ****    0 ROOT
