@<TRIPOS>MOLECULE
molecule
   39    41     1     0     0
SMALL
bcc


@<TRIPOS>ATOM
      1 N01          0.0000     0.0000     0.0000 nb         1 0C3      -0.786000
      2 N02         -0.0710    -0.0010     2.3110 nb         1 0C3      -0.871000
      3 N03          1.8910    -0.0010     3.6180 nu         1 0C3      -0.772300
      4 N04         -2.0670    -0.0010     1.0930 nu         1 0C3      -0.739300
      5 C05          1.3250     0.0000     0.0000 ca         1 0C3       0.524200
      6 C06         -0.6810    -0.0010     1.1360 ca         1 0C3       0.972900
      7 C07          1.2550    -0.0010     2.3860 ca         1 0C3       0.749200
      8 C08          2.0010     0.0000     1.2050 ca         1 0C3      -0.505600
      9 C09          1.1380    -0.1000     4.7920 ca         1 0C3       0.220600
     10 C10         -0.0830    -0.7600     4.7840 ca         1 0C3      -0.139000
     11 C11         -0.8230    -0.8560     5.9460 ca         1 0C3      -0.084000
     12 C12         -0.3490    -0.2940     7.1170 ca         1 0C3      -0.168000
     13 C13          0.8660     0.3640     7.1300 ca         1 0C3      -0.068000
     14 C14          1.6140     0.4580     5.9730 ca         1 0C3      -0.235300
     15 C15          2.9400     1.1750     5.9870 c3         1 0C3       0.675200
     16 C16         -2.7250     0.1320    -0.1260 ca         1 0C3       0.105600
     17 C17         -3.8570    -0.6320    -0.3900 ca         1 0C3      -0.162000
     18 C18         -4.5110    -0.5040    -1.5940 ca         1 0C3      -0.091000
     19 C19         -4.0370     0.3970    -2.5520 ca         1 0C3      -0.106600
     20 C20         -2.8980     1.1630    -2.2850 ca         1 0C3      -0.091000
     21 C21         -2.2530     1.0340    -1.0760 ca         1 0C3      -0.162000
     22 C22         -4.7340     0.5360    -3.8440 c          1 0C3       0.882200
     23 O23         -4.2750     1.4050    -4.7670 o          1 0C3      -0.837800
     24 O24         -5.7220    -0.1300    -4.0760 o          1 0C3      -0.837800
     25 F25          3.1960     1.6570     7.2760 f          1 0C3      -0.228300
     26 F26          3.9540     0.2890     5.6110 f          1 0C3      -0.228300
     27 F27          2.9000     2.2470     5.0890 f          1 0C3      -0.228300
     28 H1           2.8910     0.0150     3.6640 hn         1 0C3       0.464800
     29 H2          -2.5930    -0.0660     1.9410 hn         1 0C3       0.452800
     30 H3           1.8730     0.0010    -0.9350 h4         1 0C3       0.029100
     31 H4           3.0840    -0.0000     1.2320 ha         1 0C3       0.135000
     32 H5          -0.4540    -1.2000     3.8660 ha         1 0C3       0.183000
     33 H6          -1.7760    -1.3720     5.9400 ha         1 0C3       0.135000
     34 H7          -0.9330    -0.3690     8.0270 ha         1 0C3       0.131000
     35 H8           1.2350     0.8010     8.0500 ha         1 0C3       0.142000
     36 H9          -4.2240    -1.3300     0.3530 ha         1 0C3       0.115000
     37 H10         -5.3920    -1.1000    -1.7990 ha         1 0C3       0.153000
     38 H11         -2.5290     1.8640    -3.0240 ha         1 0C3       0.153000
     39 H12         -1.3700     1.6270    -0.8670 ha         1 0C3       0.115000
@<TRIPOS>BOND
     1    24    22 1   
     2    23    22 1   
     3    22    19 1   
     4    12    11 ar  
     5    12    13 ar  
     6    19    18 ar  
     7    19    20 ar  
     8    11    10 ar  
     9    18    17 ar  
    10    13    14 ar  
    11    20    21 ar  
    12    10     9 ar  
    13    17    16 ar  
    14    14     9 ar  
    15    14    15 1   
    16     9     3 1   
    17    21    16 ar  
    18    16     4 1   
    19    27    15 1   
    20    26    15 1   
    21    15    25 1   
    22     3     7 1   
    23     2     7 ar  
    24     2     6 ar  
    25     4     6 1   
    26     7     8 ar  
    27     6     1 ar  
    28     8     5 ar  
    29     1     5 ar  
    30     3    28 1   
    31     4    29 1   
    32     5    30 1   
    33     8    31 1   
    34    10    32 1   
    35    11    33 1   
    36    12    34 1   
    37    13    35 1   
    38    17    36 1   
    39    18    37 1   
    40    20    38 1   
    41    21    39 1   
@<TRIPOS>SUBSTRUCTURE
     1 0C3         1 TEMP              0 ****  ****    0 ROOT
