@<TRIPOS>MOLECULE
0C3
   39    41     1     0     0
SMALL
bcc


@<TRIPOS>ATOM
      1 N01         -0.1840    -0.1010    -0.3670 nb         1 0C3      -0.782000
      2 N02         -0.4330    -0.2140     2.0780 nb         1 0C3      -0.767000
      3 N03          1.5130    -0.2190     3.4810 nu         1 0C3      -0.736300
      4 N04         -2.3610    -0.1450     0.6600 nu         1 0C3      -0.682300
      5 C05          1.1440    -0.1730    -0.1890 ca         1 0C3       0.475200
      6 C06         -0.9510    -0.1300     0.7970 ca         1 0C3       0.889900
      7 C07          0.9230    -0.2430     2.2080 ca         1 0C3       0.713200
      8 C08          1.7760    -0.2450     1.0570 ca         1 0C3      -0.475600
      9 C09          0.8040    -0.3720     4.6900 ca         1 0C3       0.191600
     10 C10         -0.3950     0.3300     4.9460 ca         1 0C3      -0.128000
     11 C11         -1.0810     0.1660     6.1470 ca         1 0C3      -0.069000
     12 C12         -0.5580    -0.6590     7.1460 ca         1 0C3      -0.154000
     13 C13          0.6440    -1.3230     6.9360 ca         1 0C3      -0.083000
     14 C14          1.3240    -1.1970     5.7220 ca         1 0C3      -0.238300
     15 C15          2.6260    -1.9550     5.5360 c3         1 0C3       0.687200
     16 C16         -3.1260     0.2450     1.8030 ca         1 0C3       0.056600
     17 C17         -3.2860    -0.6600     2.8700 ca         1 0C3      -0.139000
     18 C18         -3.8910    -0.2370     4.0500 ca         1 0C3      -0.114000
     19 C19         -4.3570     1.0730     4.1870 ca         1 0C3      -0.113600
     20 C20         -4.3030     1.9320     3.0860 ca         1 0C3      -0.114000
     21 C21         -3.6860     1.5350     1.9030 ca         1 0C3      -0.139000
     22 C22         -4.8230     1.5720     5.5440 c          1 0C3       0.911200
     23 O23         -5.8160     2.3450     5.5990 o          1 0C3      -0.828800
     24 O24         -4.1520     1.1920     6.5500 o          1 0C3      -0.828800
     25 F25          3.7310    -1.1590     5.3160 f          1 0C3      -0.250633
     26 F26          2.6520    -2.8160     4.4620 f          1 0C3      -0.250633
     27 F27          3.0110    -2.7470     6.5900 f          1 0C3      -0.250633
     28 H1           2.4600    -0.5380     3.4880 hn         1 0C3       0.433800
     29 H2          -2.6860     0.2490    -0.2000 hn         1 0C3       0.418800
     30 H3           1.7430    -0.1630    -1.1180 h4         1 0C3       0.012100
     31 H4           2.8650    -0.2870     1.1410 ha         1 0C3       0.145000
     32 H5          -0.8220     1.0100     4.1910 ha         1 0C3       0.175000
     33 H6          -2.0620     0.6770     6.2990 ha         1 0C3       0.226000
     34 H7          -1.1030    -0.7810     8.0940 ha         1 0C3       0.146000
     35 H8           1.0660    -1.9630     7.7260 ha         1 0C3       0.135000
     36 H9          -2.8870    -1.6820     2.7930 ha         1 0C3       0.119500
     37 H10         -3.9690    -0.9190     4.9100 ha         1 0C3       0.145000
     38 H11         -4.7380     2.9390     3.1810 ha         1 0C3       0.145000
     39 H12         -3.6190     2.2380     1.0610 ha         1 0C3       0.119500
@<TRIPOS>BOND
     1     1     5 ar  
     2     1     6 ar  
     3     2     6 ar  
     4     2     7 ar  
     5     3     7 1   
     6     3     9 1   
     7     3    28 1   
     8     4     6 1   
     9     4    16 1   
    10     4    29 1   
    11     5     8 ar  
    12     5    30 1   
    13     7     8 ar  
    14     8    31 1   
    15     9    10 ar  
    16     9    14 ar  
    17    10    11 ar  
    18    10    32 1   
    19    11    12 ar  
    20    11    33 1   
    21    12    13 ar  
    22    12    34 1   
    23    13    14 ar  
    24    13    35 1   
    25    14    15 1   
    26    15    25 1   
    27    15    26 1   
    28    15    27 1   
    29    16    17 ar  
    30    16    21 ar  
    31    17    18 ar  
    32    17    36 1   
    33    18    19 ar  
    34    18    37 1   
    35    19    20 ar  
    36    19    22 1   
    37    20    21 ar  
    38    20    38 1   
    39    21    39 1   
    40    22    23 1   
    41    22    24 1   
@<TRIPOS>SUBSTRUCTURE
     1 0C3         1 TEMP              0 ****  ****    0 ROOT
