@<TRIPOS>MOLECULE
0C3
   39    41     1     0     0
SMALL
bcc


@<TRIPOS>ATOM
      1 N01          0.0000     0.0000     0.0000 nb         1 0C3      -0.694000
      2 N02         -0.0710    -0.0010     2.3110 nb         1 0C3      -0.767000
      3 N03          1.8910    -0.0010     3.6180 nu         1 0C3      -0.320300
      4 N04         -2.0670    -0.0010     1.0930 nu         1 0C3      -0.253300
      5 C05          1.3250     0.0000     0.0000 ca         1 0C3       0.525200
      6 C06         -0.6810    -0.0010     1.1360 ca         1 0C3       0.733900
      7 C07          1.2550    -0.0010     2.3860 ca         1 0C3       0.560200
      8 C08          2.0010     0.0000     1.2050 ca         1 0C3      -0.497600
      9 C09          1.1380    -0.1000     4.7920 ca         1 0C3       0.086600
     10 C10         -0.0830    -0.7600     4.7840 ca         1 0C3      -0.135000
     11 C11         -0.8230    -0.8560     5.9460 ca         1 0C3      -0.042000
     12 C12         -0.3490    -0.2940     7.1170 ca         1 0C3      -0.147000
     13 C13          0.8660     0.3640     7.1300 ca         1 0C3      -0.027000
     14 C14          1.6140     0.4580     5.9730 ca         1 0C3      -0.271300
     15 C15          2.9400     1.1750     5.9870 c3         1 0C3       0.644200
     16 C16         -2.7250     0.1320    -0.1260 ca         1 0C3      -0.068400
     17 C17         -3.8570    -0.6320    -0.3900 ca         1 0C3      -0.136000
     18 C18         -4.5110    -0.5040    -1.5940 ca         1 0C3      -0.063500
     19 C19         -4.0370     0.3970    -2.5520 ca         1 0C3      -0.097600
     20 C20         -2.8980     1.1630    -2.2850 ca         1 0C3      -0.063500
     21 C21         -2.2530     1.0340    -1.0760 ca         1 0C3      -0.136000
     22 C22         -4.7340     0.5360    -3.8440 c          1 0C3       0.972200
     23 O23         -4.2750     1.4050    -4.7670 o          1 0C3      -0.883800
     24 O24         -5.7220    -0.1300    -4.0760 o          1 0C3      -0.883800
     25 F25          3.1960     1.6570     7.2760 f          1 0C3      -0.211967
     26 F26          3.9540     0.2890     5.6110 f          1 0C3      -0.211967
     27 F27          2.9000     2.2470     5.0890 f          1 0C3      -0.211967
     28 H1           2.8910     0.0150     3.6640 hn         1 0C3       0.298800
     29 H2          -2.5930    -0.0660     1.9410 hn         1 0C3       0.277800
     30 H3           1.8730     0.0010    -0.9350 h4         1 0C3      -0.021900
     31 H4           3.0840    -0.0000     1.2320 ha         1 0C3       0.122000
     32 H5          -0.4540    -1.2000     3.8660 ha         1 0C3       0.160000
     33 H6          -1.7760    -1.3720     5.9400 ha         1 0C3       0.103000
     34 H7          -0.9330    -0.3690     8.0270 ha         1 0C3       0.105000
     35 H8           1.2350     0.8010     8.0500 ha         1 0C3       0.113000
     36 H9          -4.2240    -1.3300     0.3530 ha         1 0C3       0.096000
     37 H10         -5.3920    -1.1000    -1.7990 ha         1 0C3       0.126000
     38 H11         -2.5290     1.8640    -3.0240 ha         1 0C3       0.126000
     39 H12         -1.3700     1.6270    -0.8670 ha         1 0C3       0.096000
@<TRIPOS>BOND
     1     1     5 ar  
     2     1     6 ar  
     3     2     6 ar  
     4     2     7 ar  
     5     3     7 1   
     6     3     9 1   
     7     3    28 1   
     8     4     6 1   
     9     4    16 1   
    10     4    29 1   
    11     5     8 ar  
    12     5    30 1   
    13     7     8 ar  
    14     8    31 1   
    15     9    10 ar  
    16     9    14 ar  
    17    10    11 ar  
    18    10    32 1   
    19    11    12 ar  
    20    11    33 1   
    21    12    13 ar  
    22    12    34 1   
    23    13    14 ar  
    24    13    35 1   
    25    14    15 1   
    26    15    25 1   
    27    15    26 1   
    28    15    27 1   
    29    16    17 ar  
    30    16    21 ar  
    31    17    18 ar  
    32    17    36 1   
    33    18    19 ar  
    34    18    37 1   
    35    19    20 ar  
    36    19    22 1   
    37    20    21 ar  
    38    20    38 1   
    39    21    39 1   
    40    22    23 1   
    41    22    24 1   
@<TRIPOS>SUBSTRUCTURE
     1 0C3         1 TEMP              0 ****  ****    0 ROOT
