@<TRIPOS>MOLECULE
0C4
   36    38     1     0     0
SMALL
bcc


@<TRIPOS>ATOM
      1 Br2          0.4440    -1.2000     0.0410 br         1 0C4      -0.128100
      2 N02          3.6260     2.4100    -1.7100 nb         1 0C4      -0.768000
      3 N03          3.4580     3.5050    -3.9130 nb         1 0C4      -0.788000
      4 N04          2.8610     0.1420    -1.4600 nu         1 0C4      -0.726300
      5 C05          5.3380     4.3900     1.5540 ca         1 0C4      -0.108000
      6 C06          6.7100     4.6470     1.4970 ca         1 0C4      -0.120600
      7 C07          7.2960     4.9280     0.2590 ca         1 0C4      -0.108000
      8 C08          6.5380     4.9220    -0.9060 ca         1 0C4      -0.151000
      9 C09          5.1550     4.6410    -0.8480 ca         1 0C4       0.065600
     10 C10          4.5580     4.3880     0.4000 ca         1 0C4      -0.151000
     11 C12          3.8280     3.4820    -2.5640 ca         1 0C4       0.899900
     12 C13          3.0250     1.3040    -2.2350 ca         1 0C4       0.706200
     13 C14          2.5940     1.2640    -3.6000 ca         1 0C4      -0.485600
     14 C15          2.8500     2.4040    -4.3700 ca         1 0C4       0.479200
     15 C16          3.0180     0.1110    -0.0590 ca         1 0C4       0.163600
     16 C17          4.1900     0.6030     0.5580 ca         1 0C4      -0.108000
     17 C18          4.3500     0.5290     1.9380 ca         1 0C4      -0.088000
     18 C19          3.3690    -0.0610     2.7340 ca         1 0C4      -0.148000
     19 C20          2.2190    -0.5760     2.1440 ca         1 0C4      -0.098000
     20 C21          2.0320    -0.4920     0.7630 ca         1 0C4      -0.076900
     21 O25          7.0250     4.1350     3.8080 o          1 0C4      -0.828800
     22 O26          8.7450     5.0220     2.6920 o          1 0C4      -0.828800
     23 H1           4.7130     5.3040    -2.7300 hn         1 0C4       0.425800
     24 H2           2.1500    -0.4660    -1.8150 hn         1 0C4       0.429800
     25 H3           4.8870     4.1780     2.5380 ha         1 0C4       0.154000
     26 H4           8.3750     5.1500     0.2320 ha         1 0C4       0.154000
     27 H5           7.0220     5.1370    -1.8700 ha         1 0C4       0.119000
     28 H6           3.4820     4.1730     0.4680 ha         1 0C4       0.119000
     29 H7           2.1010     0.3880    -4.0290 ha         1 0C4       0.143000
     30 H8           2.5530     2.4370    -5.4350 h4         1 0C4       0.011100
     31 H9           4.9880     1.0670    -0.0450 ha         1 0C4       0.175000
     32 H10          5.2580     0.9540     2.4000 ha         1 0C4       0.170000
     33 H11          3.5000    -0.1120     3.8240 ha         1 0C4       0.140000
     34 H12          1.4490    -1.0460     2.7750 ha         1 0C4       0.136000
     35 N01          4.3710     4.6680    -2.0370 nu         1 0C4      -0.687300
     36 C11          7.5560     4.6020     2.7610 c          1 0C4       0.907200
@<TRIPOS>BOND
     1     1    20 1   
     2     2    11 ar  
     3     2    12 ar  
     4     3    11 ar  
     5     3    14 ar  
     6     4    12 1   
     7     4    15 1   
     8     4    24 1   
     9     5     6 ar  
    10     5    10 ar  
    11     5    25 1   
    12     6     7 ar  
    13     6    36 1   
    14     7     8 ar  
    15     7    26 1   
    16     8     9 ar  
    17     8    27 1   
    18     9    10 ar  
    19     9    35 1   
    20    10    28 1   
    21    11    35 1   
    22    12    13 ar  
    23    13    14 ar  
    24    13    29 1   
    25    14    30 1   
    26    15    16 ar  
    27    15    20 ar  
    28    16    17 ar  
    29    16    31 1   
    30    17    18 ar  
    31    17    32 1   
    32    18    19 ar  
    33    18    33 1   
    34    19    20 ar  
    35    19    34 1   
    36    21    36 1   
    37    22    36 1   
    38    23    35 1   
@<TRIPOS>SUBSTRUCTURE
     1 0C4         1 TEMP              0 ****  ****    0 ROOT
