@<TRIPOS>MOLECULE
molecule
   36    38     1     0     0
SMALL
bcc


@<TRIPOS>ATOM
      1 Br2          0.0000     0.0000     0.0000 br         1 0C4      -0.119100
      2 N02          4.8910     0.9270    -1.6190 nb         1 0C4      -0.869000
      3 N03          5.8820     1.2210    -3.6880 nb         1 0C4      -0.790000
      4 N04          2.7330     0.0060    -1.3920 nu         1 0C4      -0.763300
      5 C05          8.8070     3.5180    -4.4970 ca         1 0C4      -0.089500
      6 C06         10.1310     3.4020    -4.0630 ca         1 0C4      -0.108600
      7 C07         10.4130     2.7620    -2.8520 ca         1 0C4      -0.089500
      8 C08          9.3880     2.2500    -2.0910 ca         1 0C4      -0.166500
      9 C09          8.0710     2.3690    -2.5260 ca         1 0C4       0.105600
     10 C10          7.7860     3.0090    -3.7280 ca         1 0C4      -0.166500
     11 C12          5.9100     1.3200    -2.3680 ca         1 0C4       0.970900
     12 C13          3.7990     0.4170    -2.1780 ca         1 0C4       0.749200
     13 C14          3.7400     0.3000    -3.5690 ca         1 0C4      -0.506600
     14 C15          4.8250     0.7220    -4.3120 ca         1 0C4       0.524200
     15 C16          2.8530     0.0000     0.0000 ca         1 0C4       0.196600
     16 C17          4.1100     0.0000     0.5910 ca         1 0C4      -0.146000
     17 C18          4.2240    -0.0050     1.9670 ca         1 0C4      -0.097000
     18 C19          3.0900    -0.0110     2.7580 ca         1 0C4      -0.165000
     19 C20          1.8360    -0.0110     2.1730 ca         1 0C4      -0.085000
     20 C21          1.7140     0.0000     0.7980 ca         1 0C4      -0.073900
     21 O25         12.5040     3.8360    -4.4620 o          1 0C4      -0.838300
     22 O26         10.9820     4.5050    -5.9340 o          1 0C4      -0.838300
     23 H1           7.0900     1.8830    -0.7550 hn         1 0C4       0.452800
     24 H2           1.8890    -0.3170    -1.8230 hn         1 0C4       0.465800
     25 H3           8.5850     4.0150    -5.4330 ha         1 0C4       0.153000
     26 H4          11.4380     2.6690    -2.5130 ha         1 0C4       0.153000
     27 H5           9.6050     1.7540    -1.1530 ha         1 0C4       0.119500
     28 H6           6.7600     3.0990    -4.0640 ha         1 0C4       0.119500
     29 H7           2.8630    -0.1130    -4.0530 ha         1 0C4       0.134000
     30 H8           4.8120     0.6460    -5.3930 h4         1 0C4       0.028100
     31 H9           5.0000     0.0040    -0.0270 ha         1 0C4       0.196000
     32 H10          5.2050    -0.0050     2.4280 ha         1 0C4       0.133000
     33 H11          3.1840    -0.0170     3.8370 ha         1 0C4       0.129000
     34 H12          0.9490    -0.0150     2.7950 ha         1 0C4       0.136000
     35 N01          7.0350     1.8490    -1.7540 nu         1 0C4      -0.736300
     36 C11         11.2280     3.9500    -4.8810 c          1 0C4       0.882200
@<TRIPOS>BOND
     1     8     7 ar
     2     8     9 ar
     3     7     6 ar
     4    35     9 1
     5    35    11 1
     6    22    36 1
     7     9    10 ar
     8     3    11 ar
     9     3    14 ar
    10    11     2 ar
    11     6    36 1
    12     6     5 ar
    13    36    21 1
    14    10     5 ar
    15    14    13 ar
    16     2    12 ar
    17    13    12 ar
    18    12     4 1
    19     1    20 1
    20    20    19 ar
    21    20    15 ar
    22     4    15 1
    23    19    18 ar
    24    15    16 ar
    25    18    17 ar
    26    16    17 ar
    27    35    23 1
    28     4    24 1
    29     5    25 1
    30     7    26 1
    31     8    27 1
    32    10    28 1
    33    13    29 1
    34    14    30 1
    35    16    31 1
    36    17    32 1
    37    18    33 1
    38    19    34 1
@<TRIPOS>SUBSTRUCTURE
     1 0C4         1 TEMP              0 ****  ****    0 ROOT
