@<TRIPOS>MOLECULE
0C5
   37    39     1     0     0
SMALL
bcc


@<TRIPOS>ATOM
      1 O01          0.0000     0.0000     0.0000 o          1 0C5      -0.882800
      2 C02          1.2160     0.0000     0.0000 c          1 0C5       0.971200
      3 C03          1.9530     0.0000     1.2770 ca         1 0C5      -0.093600
      4 C04          1.2560    -0.0000     2.4890 ca         1 0C5      -0.076000
      5 C05          1.9470    -0.0000     3.6780 ca         1 0C5      -0.122000
      6 C06          3.3510    -0.0060     1.2790 ca         1 0C5      -0.076000
      7 C07          4.0350    -0.0060     2.4720 ca         1 0C5      -0.122000
      8 C08          3.3380    -0.0010     3.6770 ca         1 0C5      -0.097400
      9 N09          4.0350    -0.0000     4.8820 nu         1 0C5      -0.277300
     10 C10          5.1620    -0.7920     5.0310 ca         1 0C5       0.759900
     11 N11          5.8810    -0.6900     6.1390 nb         1 0C5      -0.763000
     12 C12          6.9660    -1.4380     6.3140 ca         1 0C5       0.519200
     13 N13          7.7150    -1.3290     7.4750 nu         1 0C5      -0.305300
     14 C14          7.3890    -0.3670     8.4270 ca         1 0C5       0.050600
     15 C15          6.7660     0.8110     8.0410 ca         1 0C5      -0.138000
     16 C16          6.4380     1.7620     8.9870 ca         1 0C5      -0.057000
     17 C17          6.7280     1.5490    10.3260 ca         1 0C5      -0.149000
     18 C18          7.3470     0.3840    10.7270 ca         1 0C5      -0.060000
     19 C19          7.6830    -0.5870     9.7820 ca         1 0C5      -0.007000
     20 C20          8.3200    -1.8020    10.1940 cg         1 0C5       0.246800
     21 N21          8.8170    -2.7750    10.5050 n1         1 0C5      -0.406800
     22 C22          7.3380    -2.3360     5.3120 ca         1 0C5      -0.486600
     23 C23          6.5600    -2.4110     4.1720 ca         1 0C5       0.543200
     24 N24          5.4920    -1.6350     4.0640 nb         1 0C5      -0.682000
     25 O25          1.8890    -0.0060    -1.1670 o          1 0C5      -0.882800
     26 H1           0.1750    -0.0780     2.4850 ha         1 0C5       0.128000
     27 H2           1.3980     0.0720     4.6090 ha         1 0C5       0.092000
     28 H3           3.8580     0.2020     0.3440 ha         1 0C5       0.128000
     29 H4           5.0930     0.2040     2.3680 ha         1 0C5       0.092000
     30 H5           3.7410     0.8850     5.2450 hn         1 0C5       0.289800
     31 H6           8.6030    -1.7900     7.4520 hn         1 0C5       0.289800
     32 H7           6.5060     0.9680     7.0010 ha         1 0C5       0.163000
     33 H8           6.3420     2.7560     8.5680 ha         1 0C5       0.102000
     34 H9           6.7780     2.4040    10.9900 ha         1 0C5       0.103000
     35 H10          7.4850     0.4540    11.7990 ha         1 0C5       0.113000
     36 H11          8.4050    -2.4400     5.4660 ha         1 0C5       0.117000
     37 H12          6.9630    -2.9310     3.3110 h4         1 0C5      -0.022900
@<TRIPOS>BOND
     1     1     2 1   
     2     2     3 1   
     3     2    25 1   
     4     3     4 ar  
     5     3     6 ar  
     6     4     5 ar  
     7     4    26 1   
     8     5     8 ar  
     9     5    27 1   
    10     6     7 ar  
    11     6    28 1   
    12     7     8 ar  
    13     7    29 1   
    14     8     9 1   
    15     9    10 1   
    16     9    30 1   
    17    10    11 ar  
    18    10    24 ar  
    19    11    12 ar  
    20    12    13 1   
    21    12    22 ar  
    22    13    14 1   
    23    13    31 1   
    24    14    15 ar  
    25    14    19 ar  
    26    15    16 ar  
    27    15    32 1   
    28    16    17 ar  
    29    16    33 1   
    30    17    18 ar  
    31    17    34 1   
    32    18    19 ar  
    33    18    35 1   
    34    19    20 1   
    35    20    21 3   
    36    22    23 ar  
    37    22    36 1   
    38    23    24 ar  
    39    23    37 1   
@<TRIPOS>SUBSTRUCTURE
     1 0C5         1 TEMP              0 ****  ****    0 ROOT
