@<TRIPOS>MOLECULE
0C5
   37    39     1     0     0
SMALL
bcc


@<TRIPOS>ATOM
      1 O01         -0.0830    -0.6190     0.3280 o          1 0C5      -0.828300
      2 C02          0.9720     0.0680     0.2250 c          1 0C5       0.907200
      3 C03          1.9810    -0.0160     1.3610 ca         1 0C5      -0.119600
      4 C04          3.0010     0.9340     1.4790 ca         1 0C5      -0.109000
      5 C05          3.8830     0.9030     2.5540 ca         1 0C5      -0.149500
      6 C06          1.8840    -1.0280     2.3180 ca         1 0C5      -0.109000
      7 C07          2.7630    -1.0840     3.3970 ca         1 0C5      -0.149500
      8 C08          3.7620    -0.1030     3.5370 ca         1 0C5       0.064600
      9 N09          4.6680    -0.1450     4.6370 nu         1 0C5      -0.687300
     10 C10          4.2190     0.1600     5.9340 ca         1 0C5       0.899900
     11 N11          2.8690     0.0230     6.2130 nb         1 0C5      -0.770000
     12 C12          2.4720     0.2540     7.4960 ca         1 0C5       0.707200
     13 N13          1.1100     0.2140     7.8420 nu         1 0C5      -0.730300
     14 C14          0.0910    -0.2860     7.0090 ca         1 0C5       0.187600
     15 C15         -0.0170     0.0850     5.6500 ca         1 0C5      -0.123000
     16 C16         -1.0580    -0.3970     4.8640 ca         1 0C5      -0.073000
     17 C17         -2.0380    -1.2300     5.4100 ca         1 0C5      -0.158000
     18 C18         -1.9710    -1.5840     6.7510 ca         1 0C5      -0.080000
     19 C19         -0.9170    -1.1280     7.5560 ca         1 0C5      -0.096000
     20 C20         -0.8810    -1.5230     8.9190 cg         1 0C5       0.248800
     21 N21         -0.8630    -1.8550    10.0360 n1         1 0C5      -0.406800
     22 C22          3.4140     0.5890     8.5200 ca         1 0C5      -0.483600
     23 C23          4.7530     0.6980     8.1260 ca         1 0C5       0.480200
     24 N24          5.1920     0.5090     6.8750 nb         1 0C5      -0.785000
     25 O25          1.2380     0.8270    -0.7480 o          1 0C5      -0.828300
     26 H1           3.0830     1.7100     0.7010 ha         1 0C5       0.153500
     27 H2           4.6690     1.6680     2.6340 ha         1 0C5       0.119000
     28 H3           1.0820    -1.7770     2.2070 ha         1 0C5       0.153500
     29 H4           2.6600    -1.8830     4.1450 ha         1 0C5       0.119000
     30 H5           5.5790     0.2070     4.4230 hn         1 0C5       0.426800
     31 H6           0.9580     0.0870     8.8210 hn         1 0C5       0.430800
     32 H7           0.7290     0.7510     5.1850 ha         1 0C5       0.179000
     33 H8          -1.0990    -0.1230     3.7950 ha         1 0C5       0.176000
     34 H9          -2.8540    -1.6060     4.7770 ha         1 0C5       0.142000
     35 H10         -2.7420    -2.2330     7.1920 ha         1 0C5       0.133000
     36 H11          3.1120     0.7640     9.5560 ha         1 0C5       0.145000
     37 H12          5.5320     0.9650     8.8640 h4         1 0C5       0.013100
@<TRIPOS>BOND
     1     1     2 1   
     2     2     3 1   
     3     2    25 1   
     4     3     4 ar  
     5     3     6 ar  
     6     4     5 ar  
     7     4    26 1   
     8     5     8 ar  
     9     5    27 1   
    10     6     7 ar  
    11     6    28 1   
    12     7     8 ar  
    13     7    29 1   
    14     8     9 1   
    15     9    10 1   
    16     9    30 1   
    17    10    11 ar  
    18    10    24 ar  
    19    11    12 ar  
    20    12    13 1   
    21    12    22 ar  
    22    13    14 1   
    23    13    31 1   
    24    14    15 ar  
    25    14    19 ar  
    26    15    16 ar  
    27    15    32 1   
    28    16    17 ar  
    29    16    33 1   
    30    17    18 ar  
    31    17    34 1   
    32    18    19 ar  
    33    18    35 1   
    34    19    20 1   
    35    20    21 3   
    36    22    23 ar  
    37    22    36 1   
    38    23    24 ar  
    39    23    37 1   
@<TRIPOS>SUBSTRUCTURE
     1 0C5         1 TEMP              0 ****  ****    0 ROOT
