@<TRIPOS>MOLECULE
molecule
   36    38     1     0     0
SMALL
bcc


@<TRIPOS>ATOM
      1 Cl1          0.0000     0.0000     0.0000 cl         1 0C6      -0.124400
      2 C02          1.7360     0.0000     0.0000 ca         1 0C6      -0.025600
      3 C03          2.4290     0.0000     1.1970 ca         1 0C6      -0.103000
      4 C04          3.8110    -0.0000     1.1970 ca         1 0C6      -0.156000
      5 C05          4.5060     0.0000     0.0020 ca         1 0C6      -0.108000
      6 C06          3.8210    -0.0000    -1.1980 ca         1 0C6      -0.140000
      7 C07          2.4330    -0.0060    -1.2030 ca         1 0C6       0.178600
      8 N08          1.7360    -0.0060    -2.4150 nu         1 0C6      -0.756300
      9 C09          2.3710     0.4000    -3.5800 ca         1 0C6       0.729200
     10 C10          1.7280     0.2850    -4.8160 ca         1 0C6      -0.255700
     11 C12          2.4000     0.7040    -5.9500 ca         1 0C6       0.501200
     12 N13          3.6230     1.1990    -5.8310 nb         1 0C6      -0.771000
     13 C14          4.2070     1.2960    -4.6470 ca         1 0C6       0.963900
     14 N15          5.4880     1.8210    -4.5670 nu         1 0C6      -0.733300
     15 C16          6.1050     2.3320    -5.7060 ca         1 0C6       0.100600
     16 C17          7.4720     2.1550    -5.8940 ca         1 0C6      -0.163500
     17 C18          8.0850     2.6580    -7.0190 ca         1 0C6      -0.090000
     18 C19          7.3310     3.3470    -7.9740 ca         1 0C6      -0.104600
     19 C20          7.9830     3.8870    -9.1800 c          1 0C6       0.881200
     20 O21          7.2550     4.5510   -10.1000 o          1 0C6      -0.836800
     21 O22          9.1770     3.7340    -9.3460 o          1 0C6      -0.836800
     22 C23          5.9570     3.5220    -7.7830 ca         1 0C6      -0.090000
     23 C24          5.3500     3.0120    -6.6580 ca         1 0C6      -0.163500
     24 N25          3.5970     0.9120    -3.5370 nb         1 0C6      -0.855000
     25 F11          0.4790    -0.2250    -4.9010 f          1 0C6      -0.149900
     26 H1           1.8870    -0.0000     2.1350 ha         1 0C6       0.138000
     27 H2           4.3510     0.0000     2.1360 ha         1 0C6       0.129000
     28 H3           5.5900     0.0030     0.0060 ha         1 0C6       0.134000
     29 H4           4.3670    -0.0030    -2.1340 ha         1 0C6       0.194000
     30 H5           0.7890    -0.3280    -2.4480 hn         1 0C6       0.473800
     31 H6           1.9310     0.6280    -6.9240 h4         1 0C6       0.042100
     32 H7           5.9640     1.8470    -3.6870 hn         1 0C6       0.454800
     33 H8           8.0550     1.6210    -5.1530 ha         1 0C6       0.118000
     34 H9           9.1500     2.5200    -7.1640 ha         1 0C6       0.154000
     35 H11          5.3690     4.0540    -8.5220 ha         1 0C6       0.154000
     36 H12          4.2860     3.1470    -6.5090 ha         1 0C6       0.118000
@<TRIPOS>BOND
     1     5     6 ar
     2     5     4 ar
     3     6     7 ar
     4     4     3 ar
     5     7     8 1
     6     7     2 ar
     7     3     2 ar
     8     8     9 1
     9     2     1 1
    10    25    10 1
    11     9    10 ar
    12     9    24 ar
    13    10    11 ar
    14    21    19 1
    15    24    13 ar
    16    17    16 ar
    17    17    18 ar
    18    16    15 ar
    19    19    18 1
    20    19    20 1
    21    11    12 ar
    22    18    22 ar
    23    13    12 ar
    24    13    14 1
    25    15    14 1
    26    15    23 ar
    27    22    23 ar
    28     3    26 1
    29     4    27 1
    30     5    28 1
    31     6    29 1
    32     8    30 1
    33    11    31 1
    34    14    32 1
    35    16    33 1
    36    17    34 1
    37    22    35 1
    38    23    36 1
@<TRIPOS>SUBSTRUCTURE
     1 0C6         1 TEMP              0 ****  ****    0 ROOT
