@<TRIPOS>MOLECULE
0C6
   36    38     1     0     0
SMALL
bcc


@<TRIPOS>ATOM
      1 Cl1          0.4890    -1.3100    -0.2660 cl         1 0C6      -0.125400
      2 C02          2.0430    -0.5970    -0.2410 ca         1 0C6      -0.030600
      3 C03          2.8090    -0.7210     0.9180 ca         1 0C6      -0.118000
      4 C04          4.0750    -0.1450     0.9810 ca         1 0C6      -0.136000
      5 C05          4.5810     0.5390    -0.1230 ca         1 0C6      -0.101000
      6 C06          3.8350     0.6510    -1.2920 ca         1 0C6      -0.098000
      7 C07          2.5390     0.0980    -1.3730 ca         1 0C6       0.138600
      8 N08          1.7820     0.1630    -2.5630 nu         1 0C6      -0.717300
      9 C09          1.5050     1.3630    -3.2320 ca         1 0C6       0.694200
     10 C10          0.4950     1.3590    -4.2660 ca         1 0C6      -0.251700
     11 C12          0.3140     2.5550    -4.9910 ca         1 0C6       0.462200
     12 N13          1.0120     3.6700    -4.7650 nb         1 0C6      -0.774000
     13 C14          1.9510     3.6160    -3.7300 ca         1 0C6       0.898900
     14 N15          2.6080     4.8150    -3.4120 nu         1 0C6      -0.684300
     15 C16          3.8330     4.8060    -2.6840 ca         1 0C6       0.063600
     16 C17          3.8550     4.4590    -1.3210 ca         1 0C6      -0.149500
     17 C18          5.0590     4.4800    -0.6210 ca         1 0C6      -0.107500
     18 C19          6.2510     4.8470    -1.2480 ca         1 0C6      -0.118600
     19 C20          7.5660     4.8220    -0.4810 c          1 0C6       0.907200
     20 O21          8.5800     5.3370    -1.0300 o          1 0C6      -0.827800
     21 O22          7.5700     4.2770     0.6590 o          1 0C6      -0.827800
     22 C23          6.2220     5.2200    -2.5960 ca         1 0C6      -0.107500
     23 C24          5.0330     5.1980    -3.3160 ca         1 0C6      -0.149500
     24 N25          2.2120     2.4940    -2.9620 nb         1 0C6      -0.759000
     25 F11         -0.2470     0.2600    -4.5390 f          1 0C6      -0.143900
     26 H1           2.4050    -1.2650     1.7850 ha         1 0C6       0.138000
     27 H2           4.6700    -0.2250     1.9020 ha         1 0C6       0.140000
     28 H3           5.5780     1.0110    -0.0720 ha         1 0C6       0.170000
     29 H4           4.2670     1.1920    -2.1500 ha         1 0C6       0.173000
     30 H5           1.0390    -0.5060    -2.6290 hn         1 0C6       0.438800
     31 H6          -0.4360     2.6020    -5.8020 h4         1 0C6       0.026100
     32 H7           2.5700     5.5100    -4.1300 hn         1 0C6       0.429800
     33 H8           2.9300     4.1570    -0.8090 ha         1 0C6       0.119000
     34 H9           5.0950     4.1960     0.4440 ha         1 0C6       0.155000
     35 H11          7.1680     5.5270    -3.0720 ha         1 0C6       0.155000
     36 H12          5.0350     5.4860    -4.3770 ha         1 0C6       0.119000
@<TRIPOS>BOND
     1     1     2 1   
     2     2     3 ar  
     3     2     7 ar  
     4     3     4 ar  
     5     3    26 1   
     6     4     5 ar  
     7     4    27 1   
     8     5     6 ar  
     9     5    28 1   
    10     6     7 ar  
    11     6    29 1   
    12     7     8 1   
    13     8     9 1   
    14     8    30 1   
    15     9    10 ar  
    16     9    24 ar  
    17    10    11 ar  
    18    10    25 1   
    19    11    12 ar  
    20    11    31 1   
    21    12    13 ar  
    22    13    14 1   
    23    13    24 ar  
    24    14    15 1   
    25    14    32 1   
    26    15    16 ar  
    27    15    23 ar  
    28    16    17 ar  
    29    16    33 1   
    30    17    18 ar  
    31    17    34 1   
    32    18    19 1   
    33    18    22 ar  
    34    19    20 1   
    35    19    21 1   
    36    22    23 ar  
    37    22    35 1   
    38    23    36 1   
@<TRIPOS>SUBSTRUCTURE
     1 0C6         1 TEMP              0 ****  ****    0 ROOT
