@<TRIPOS>MOLECULE
0C6
   36    38     1     0     0
SMALL
bcc


@<TRIPOS>ATOM
      1 Cl1          0.0000     0.0000     0.0000 cl         1 0C6      -0.040400
      2 C02          1.7360     0.0000     0.0000 ca         1 0C6      -0.086600
      3 C03          2.4290     0.0000     1.1970 ca         1 0C6      -0.078000
      4 C04          3.8110    -0.0000     1.1970 ca         1 0C6      -0.130000
      5 C05          4.5060     0.0000     0.0020 ca         1 0C6      -0.072000
      6 C06          3.8210    -0.0000    -1.1980 ca         1 0C6      -0.139000
      7 C07          2.4330    -0.0060    -1.2030 ca         1 0C6       0.023600
      8 N08          1.7360    -0.0060    -2.4150 nu         1 0C6      -0.293300
      9 C09          2.3710     0.4000    -3.5800 ca         1 0C6       0.544200
     10 C10          1.7280     0.2850    -4.8160 ca         1 0C6      -0.297700
     11 C12          2.4000     0.7040    -5.9500 ca         1 0C6       0.506200
     12 N13          3.6230     1.1990    -5.8310 nb         1 0C6      -0.680000
     13 C14          4.2070     1.2960    -4.6470 ca         1 0C6       0.723900
     14 N15          5.4880     1.8210    -4.5670 nu         1 0C6      -0.241300
     15 C16          6.1050     2.3320    -5.7060 ca         1 0C6      -0.074400
     16 C17          7.4720     2.1550    -5.8940 ca         1 0C6      -0.138500
     17 C18          8.0850     2.6580    -7.0190 ca         1 0C6      -0.063000
     18 C19          7.3310     3.3470    -7.9740 ca         1 0C6      -0.096600
     19 C20          7.9830     3.8870    -9.1800 c          1 0C6       0.971200
     20 O21          7.2550     4.5510   -10.1000 o          1 0C6      -0.882800
     21 O22          9.1770     3.7340    -9.3460 o          1 0C6      -0.882800
     22 C23          5.9570     3.5220    -7.7830 ca         1 0C6      -0.063000
     23 C24          5.3500     3.0120    -6.6580 ca         1 0C6      -0.138500
     24 N25          3.5970     0.9120    -3.5370 nb         1 0C6      -0.752000
     25 F11          0.4790    -0.2250    -4.9010 f          1 0C6      -0.126900
     26 H1           1.8870    -0.0000     2.1350 ha         1 0C6       0.107000
     27 H2           4.3510     0.0000     2.1360 ha         1 0C6       0.101000
     28 H3           5.5900     0.0030     0.0060 ha         1 0C6       0.102000
     29 H4           4.3670    -0.0030    -2.1340 ha         1 0C6       0.172000
     30 H5           0.7890    -0.3280    -2.4480 hn         1 0C6       0.300800
     31 H6           1.9310     0.6280    -6.9240 h4         1 0C6      -0.008900
     32 H7           5.9640     1.8470    -3.6870 hn         1 0C6       0.279800
     33 H8           8.0550     1.6210    -5.1530 ha         1 0C6       0.099000
     34 H9           9.1500     2.5200    -7.1640 ha         1 0C6       0.127000
     35 H11          5.3690     4.0540    -8.5220 ha         1 0C6       0.127000
     36 H12          4.2860     3.1470    -6.5090 ha         1 0C6       0.099000
@<TRIPOS>BOND
     1     1     2 1   
     2     2     3 ar  
     3     2     7 ar  
     4     3     4 ar  
     5     3    26 1   
     6     4     5 ar  
     7     4    27 1   
     8     5     6 ar  
     9     5    28 1   
    10     6     7 ar  
    11     6    29 1   
    12     7     8 1   
    13     8     9 1   
    14     8    30 1   
    15     9    10 ar  
    16     9    24 ar  
    17    10    11 ar  
    18    10    25 1   
    19    11    12 ar  
    20    11    31 1   
    21    12    13 ar  
    22    13    14 1   
    23    13    24 ar  
    24    14    15 1   
    25    14    32 1   
    26    15    16 ar  
    27    15    23 ar  
    28    16    17 ar  
    29    16    33 1   
    30    17    18 ar  
    31    17    34 1   
    32    18    19 1   
    33    18    22 ar  
    34    19    20 1   
    35    19    21 1   
    36    22    23 ar  
    37    22    35 1   
    38    23    36 1   
@<TRIPOS>SUBSTRUCTURE
     1 0C6         1 TEMP              0 ****  ****    0 ROOT
