@<TRIPOS>MOLECULE
0C7
   39    42     1     0     0
SMALL
bcc


@<TRIPOS>ATOM
      1 Cl2          0.0000     0.0000     0.0000 cl         1 0C7      -0.028400
      2 C02          1.7360     0.0000     0.0000 ca         1 0C7      -0.075600
      3 C03          2.4280     0.0000     1.1970 ca         1 0C7      -0.075000
      4 C04          3.8110     0.0000     1.1960 ca         1 0C7      -0.113000
      5 C05          4.5050    -0.0000     0.0010 ca         1 0C7      -0.077000
      6 C06          3.8200    -0.0010    -1.1990 ca         1 0C7      -0.118000
      7 C07          2.4320    -0.0060    -1.2040 ca         1 0C7       0.006600
      8 N08          1.7350    -0.0070    -2.4150 nu         1 0C7      -0.290300
      9 C09          2.3140     0.5440    -3.5480 ca         1 0C7       0.565200
     10 C10          1.6720     0.4580    -4.7860 ca         1 0C7      -0.472600
     11 C11          2.2860     1.0200    -5.8880 ca         1 0C7       0.527200
     12 N12          3.4580     1.6220    -5.7390 nb         1 0C7      -0.733000
     13 C13          4.0440     1.6890    -4.5530 ca         1 0C7       0.737900
     14 N14          5.2680     2.3270    -4.4400 nu         1 0C7      -0.295300
     15 C15          5.9330     2.7700    -5.5860 ca         1 0C7       0.027600
     16 C16          6.5870     3.9970    -5.5770 ca         1 0C7      -0.116500
     17 C17          7.2440     4.4370    -6.7050 ca         1 0C7      -0.051000
     18 C18          7.2520     3.6490    -7.8570 ca         1 0C7      -0.163500
     19 C19          7.9560     4.1190    -9.0700 cc         1 0C7       0.316000
     20 N20          8.0430     3.4670   -10.2560 na         1 0C7       0.284600
     21 N21          8.8060     4.3080   -11.0850 nc         1 0C7      -0.401800
     22 N22          9.1090     5.3460   -10.3870 nd         1 0C7       0.035000
     23 N23          8.6130     5.2520    -9.2060 nd         1 0C7      -0.398000
     24 C24          6.5940     2.4180    -7.8640 ca         1 0C7      -0.051000
     25 C25          5.9440     1.9810    -6.7300 ca         1 0C7      -0.116500
     26 N26          3.4860     1.1660    -3.4720 nb         1 0C7      -0.745000
     27 H1           1.8870     0.0010     2.1350 ha         1 0C7       0.114000
     28 H2           4.3510     0.0010     2.1350 ha         1 0C7       0.107000
     29 H3           5.5890     0.0020     0.0050 ha         1 0C7       0.104000
     30 H4           4.3660    -0.0040    -2.1350 ha         1 0C7       0.148000
     31 H5           0.8260    -0.4230    -2.4700 hn         1 0C7       0.297800
     32 H6           0.7150    -0.0400    -4.8790 ha         1 0C7       0.130000
     33 H7           1.8150     0.9710    -6.8620 h4         1 0C7      -0.018900
     34 H8           5.6860     2.4530    -3.5390 hn         1 0C7       0.297800
     35 H9           6.5800     4.6080    -4.6820 ha         1 0C7       0.122000
     36 H10          7.7530     5.3930    -6.6970 ha         1 0C7       0.112000
     37 H11          7.6480     2.5770   -10.4910 hn         1 0C7       0.173700
     38 H12          6.6010     1.8040    -8.7560 ha         1 0C7       0.112000
     39 H13          5.4330     1.0260    -6.7340 ha         1 0C7       0.122000
@<TRIPOS>BOND
     1     1     2 1   
     2     2     3 ar  
     3     2     7 ar  
     4     3     4 ar  
     5     3    27 1   
     6     4     5 ar  
     7     4    28 1   
     8     5     6 ar  
     9     5    29 1   
    10     6     7 ar  
    11     6    30 1   
    12     7     8 1   
    13     8     9 1   
    14     8    31 1   
    15     9    10 ar  
    16     9    26 ar  
    17    10    11 ar  
    18    10    32 1   
    19    11    12 ar  
    20    11    33 1   
    21    12    13 ar  
    22    13    14 1   
    23    13    26 ar  
    24    14    15 1   
    25    14    34 1   
    26    15    16 ar  
    27    15    25 ar  
    28    16    17 ar  
    29    16    35 1   
    30    17    18 ar  
    31    17    36 1   
    32    18    19 1   
    33    18    24 ar  
    34    19    20 1   
    35    19    23 2   
    36    20    21 1   
    37    20    37 1   
    38    21    22 2   
    39    22    23 1   
    40    24    25 ar  
    41    24    38 1   
    42    25    39 1   
@<TRIPOS>SUBSTRUCTURE
     1 0C7         1 TEMP              0 ****  ****    0 ROOT
