@<TRIPOS>MOLECULE
0C7
   39    42     1     0     0
SMALL
bcc


@<TRIPOS>ATOM
      1 Cl2          0.1640    -0.4470     0.4240 cl         1 0C7      -0.102400
      2 C02          1.8350    -0.2670     0.1330 ca         1 0C7      -0.023600
      3 C03          2.7220    -0.4650     1.1920 ca         1 0C7      -0.109000
      4 C04          4.0920    -0.3230     0.9880 ca         1 0C7      -0.130000
      5 C05          4.5750     0.0090    -0.2770 ca         1 0C7      -0.115000
      6 C06          3.7020     0.1970    -1.3440 ca         1 0C7      -0.105000
      7 C07          2.3090     0.0670    -1.1600 ca         1 0C7       0.138600
      8 N08          1.4190     0.1860    -2.2490 nu         1 0C7      -0.724300
      9 C09          1.3310     1.3330    -3.0480 ca         1 0C7       0.711200
     10 C10          0.2720     1.4020    -4.0100 ca         1 0C7      -0.458600
     11 C11          0.2580     2.5160    -4.8550 ca         1 0C7       0.485200
     12 N12          1.1580     3.5090    -4.8040 nb         1 0C7      -0.768000
     13 C13          2.1370     3.3880    -3.8220 ca         1 0C7       0.899900
     14 N14          3.0310     4.4770    -3.7200 nu         1 0C7      -0.720300
     15 C15          4.2170     4.4410    -2.9640 ca         1 0C7       0.172600
     16 C16          5.4340     4.8430    -3.5670 ca         1 0C7      -0.150000
     17 C17          6.6070     4.8950    -2.8260 ca         1 0C7      -0.078500
     18 C18          6.6040     4.5460    -1.4690 ca         1 0C7      -0.166500
     19 C19          7.8250     4.5760    -0.6850 cc         1 0C7       0.461000
     20 N20          8.9690     5.3580    -0.9610 na         1 0C7      -0.185400
     21 N21          9.8810     5.1130    -0.0100 nc         1 0C7      -0.195800
     22 N22          9.3750     4.2570     0.8020 nd         1 0C7      -0.048000
     23 N23          8.1430     3.8890     0.4610 nd         1 0C7      -0.376000
     24 C24          5.4040     4.1520    -0.8620 ca         1 0C7      -0.078500
     25 C25          4.2220     4.1060    -1.5930 ca         1 0C7      -0.150000
     26 N26          2.2650     2.3290    -2.9460 nb         1 0C7      -0.786000
     27 H1           2.3360    -0.7290     2.1880 ha         1 0C7       0.150000
     28 H2           4.7900    -0.4700     1.8260 ha         1 0C7       0.144000
     29 H3           5.6580     0.1210    -0.4390 ha         1 0C7       0.145000
     30 H4           4.1060     0.4530    -2.3360 ha         1 0C7       0.157000
     31 H5           0.5500    -0.2970    -2.1390 hn         1 0C7       0.440800
     32 H6          -0.4870     0.6180    -4.0930 ha         1 0C7       0.157000
     33 H7          -0.5230     2.6260    -5.6310 h4         1 0C7       0.030100
     34 H8           3.0640     5.0660    -4.5280 hn         1 0C7       0.447800
     35 H9           5.4640     5.1170    -4.6330 ha         1 0C7       0.153500
     36 H10          7.5390     5.1960    -3.3270 ha         1 0C7       0.146000
     37 H11          9.1230     5.9990    -1.7030 hn         1 0C7       0.332700
     38 H12          5.3890     3.8780     0.2060 ha         1 0C7       0.146000
     39 H13          3.2920     3.8030    -1.0850 ha         1 0C7       0.153500
@<TRIPOS>BOND
     1     1     2 1   
     2     2     3 ar  
     3     2     7 ar  
     4     3     4 ar  
     5     3    27 1   
     6     4     5 ar  
     7     4    28 1   
     8     5     6 ar  
     9     5    29 1   
    10     6     7 ar  
    11     6    30 1   
    12     7     8 1   
    13     8     9 1   
    14     8    31 1   
    15     9    10 ar  
    16     9    26 ar  
    17    10    11 ar  
    18    10    32 1   
    19    11    12 ar  
    20    11    33 1   
    21    12    13 ar  
    22    13    14 1   
    23    13    26 ar  
    24    14    15 1   
    25    14    34 1   
    26    15    16 ar  
    27    15    25 ar  
    28    16    17 ar  
    29    16    35 1   
    30    17    18 ar  
    31    17    36 1   
    32    18    19 1   
    33    18    24 ar  
    34    19    20 1   
    35    19    23 2   
    36    20    21 1   
    37    20    37 1   
    38    21    22 2   
    39    22    23 1   
    40    24    25 ar  
    41    24    38 1   
    42    25    39 1   
@<TRIPOS>SUBSTRUCTURE
     1 0C7         1 TEMP              0 ****  ****    0 ROOT
