@<TRIPOS>MOLECULE
0C8
   40    42     1     0     0
SMALL
bcc


@<TRIPOS>ATOM
      1 N01         -0.1060    -0.1650    -0.1880 nb         1 0C8      -0.785000
      2 N02         -0.3200    -0.1980     2.2670 nb         1 0C8      -0.773000
      3 N03          1.6650    -0.1360     3.6260 nu         1 0C8      -0.722300
      4 N04         -2.2550    -0.2580     0.8520 nu         1 0C8      -0.687300
      5 C05          1.2240    -0.1930    -0.0310 ca         1 0C8       0.480200
      6 C06         -0.8580    -0.1800     0.9900 ca         1 0C8       0.900900
      7 C07          1.0380    -0.1990     2.3700 ca         1 0C8       0.710200
      8 C08          1.8750    -0.2120     1.2080 ca         1 0C8      -0.481600
      9 C09          1.0180    -0.2870     4.8640 ca         1 0C8       0.167600
     10 C10         -0.2400     0.2840     5.1610 ca         1 0C8      -0.121000
     11 C11         -0.8110     0.1330     6.4210 ca         1 0C8      -0.084000
     12 C12         -0.1490    -0.5610     7.4360 ca         1 0C8      -0.150000
     13 C13          1.1040    -1.1100     7.1900 ca         1 0C8      -0.104000
     14 C14          1.6770    -0.9730     5.9220 ca         1 0C8      -0.003900
     15 C15          3.2070    -2.7310     5.3710 c3         1 0C8       0.808700
     16 C16         -3.1080     0.1270     1.9270 ca         1 0C8       0.065600
     17 C17         -3.9130     1.2810     1.8170 ca         1 0C8      -0.150500
     18 C18         -4.7570     1.6420     2.8610 ca         1 0C8      -0.108500
     19 C19         -4.8120     0.8820     4.0340 ca         1 0C8      -0.119600
     20 C20         -4.0360    -0.2740     4.1290 ca         1 0C8      -0.108500
     21 C21         -3.1920    -0.6610     3.0910 ca         1 0C8      -0.150500
     22 C22         -5.6870     1.3200     5.2010 c          1 0C8       0.907200
     23 O23         -5.4970     0.7590     6.3170 o          1 0C8      -0.828300
     24 O24         -6.5410     2.2250     4.9920 o          1 0C8      -0.828300
     25 O25          3.0000    -1.3980     5.7500 os         1 0C8      -0.372900
     26 F26          2.8240    -2.9470     4.0860 f          1 0C8      -0.222967
     27 F27          2.5870    -3.6260     6.1790 f          1 0C8      -0.222967
     28 F28          4.5500    -2.9180     5.4590 f          1 0C8      -0.222967
     29 H1           2.6100    -0.4650     3.6150 hn         1 0C8       0.434800
     30 H2          -2.5950     0.0110    -0.0500 hn         1 0C8       0.426800
     31 H3           1.8090    -0.1910    -0.9690 h4         1 0C8       0.013100
     32 H4           2.9660    -0.2250     1.2750 ha         1 0C8       0.145000
     33 H5          -0.7990     0.8510     4.3980 ha         1 0C8       0.185000
     34 H6          -1.8100     0.5650     6.6100 ha         1 0C8       0.175000
     35 H7          -0.6180    -0.6750     8.4230 ha         1 0C8       0.142000
     36 H8           1.6530    -1.6570     7.9700 ha         1 0C8       0.141000
     37 H9          -3.8760     1.9010     0.9090 ha         1 0C8       0.119000
     38 H10         -5.3950     2.5380     2.7900 ha         1 0C8       0.153500
     39 H11         -4.0970    -0.8700     5.0540 ha         1 0C8       0.153500
     40 H12         -2.5820    -1.5700     3.1910 ha         1 0C8       0.119000
@<TRIPOS>BOND
     1     1     5 ar  
     2     1     6 ar  
     3     2     6 ar  
     4     2     7 ar  
     5     3     7 1   
     6     3     9 1   
     7     3    29 1   
     8     4     6 1   
     9     4    16 1   
    10     4    30 1   
    11     5     8 ar  
    12     5    31 1   
    13     7     8 ar  
    14     8    32 1   
    15     9    10 ar  
    16     9    14 ar  
    17    10    11 ar  
    18    10    33 1   
    19    11    12 ar  
    20    11    34 1   
    21    12    13 ar  
    22    12    35 1   
    23    13    14 ar  
    24    13    36 1   
    25    14    25 1   
    26    15    25 1   
    27    15    26 1   
    28    15    27 1   
    29    15    28 1   
    30    16    17 ar  
    31    16    21 ar  
    32    17    18 ar  
    33    17    37 1   
    34    18    19 ar  
    35    18    38 1   
    36    19    20 ar  
    37    19    22 1   
    38    20    21 ar  
    39    20    39 1   
    40    21    40 1   
    41    22    23 1   
    42    22    24 1   
@<TRIPOS>SUBSTRUCTURE
     1 0C8         1 TEMP              0 ****  ****    0 ROOT
