@<TRIPOS>MOLECULE
0C8
   40    42     1     0     0
SMALL
bcc


@<TRIPOS>ATOM
      1 N01          0.0000     0.0000     0.0000 nb         1 0C8      -0.699000
      2 N02         -0.0730     0.0000     2.3120 nb         1 0C8      -0.772000
      3 N03          1.8890    -0.0000     3.6190 nu         1 0C8      -0.299300
      4 N04         -2.0660    -0.0000     1.0910 nu         1 0C8      -0.255300
      5 C05          1.3260     0.0000     0.0000 ca         1 0C8       0.526200
      6 C06         -0.6810     0.0000     1.1350 ca         1 0C8       0.735900
      7 C07          1.2540    -0.0000     2.3870 ca         1 0C8       0.559200
      8 C08          2.0000     0.0000     1.2050 ca         1 0C8      -0.504600
      9 C09          1.1360    -0.1000     4.7940 ca         1 0C8       0.013600
     10 C10         -0.0940    -0.7420     4.7800 ca         1 0C8      -0.097000
     11 C11         -0.8360    -0.8400     5.9420 ca         1 0C8      -0.097000
     12 C12         -0.3560    -0.3000     7.1210 ca         1 0C8      -0.090000
     13 C13          0.8700     0.3420     7.1430 ca         1 0C8      -0.178000
     14 C14          1.6220     0.4390     5.9840 ca         1 0C8       0.077100
     15 C15          3.2560     1.6080     7.2560 c3         1 0C8       0.758700
     16 C16         -2.7250     0.1340    -0.1280 ca         1 0C8      -0.067400
     17 C17         -3.8570    -0.6310    -0.3930 ca         1 0C8      -0.134500
     18 C18         -4.5110    -0.5000    -1.5970 ca         1 0C8      -0.065000
     19 C19         -4.0360     0.4020    -2.5550 ca         1 0C8      -0.096600
     20 C20         -2.8970     1.1680    -2.2840 ca         1 0C8      -0.065000
     21 C21         -2.2520     1.0370    -1.0760 ca         1 0C8      -0.134500
     22 C22         -4.7290     0.5400    -3.8470 c          1 0C8       0.971200
     23 O23         -4.3130     1.3210    -4.6800 o          1 0C8      -0.884300
     24 O24         -5.8260    -0.1990    -4.1070 o          1 0C8      -0.884300
     25 O25          2.8260     1.0690     6.0040 os         1 0C8      -0.319900
     26 F26          3.3540     0.5770     8.1980 f          1 0C8      -0.199633
     27 F27          4.5060     2.2160     7.0980 f          1 0C8      -0.199633
     28 F28          2.3280     2.5560     7.6980 f          1 0C8      -0.199633
     29 H1           2.8880     0.0410     3.6670 hn         1 0C8       0.291800
     30 H2          -2.5930    -0.0630     1.9400 hn         1 0C8       0.278800
     31 H3           1.8740     0.0000    -0.9350 h4         1 0C8      -0.022900
     32 H4           3.0830    -0.0000     1.2340 ha         1 0C8       0.121000
     33 H5          -0.4720    -1.1660     3.8580 ha         1 0C8       0.161000
     34 H6          -1.7960    -1.3420     5.9290 ha         1 0C8       0.105000
     35 H7          -0.9410    -0.3770     8.0290 ha         1 0C8       0.102000
     36 H8           1.2440     0.7620     8.0680 ha         1 0C8       0.123000
     37 H9          -4.2250    -1.3280     0.3490 ha         1 0C8       0.095000
     38 H10         -5.3620    -1.1320    -1.8230 ha         1 0C8       0.126000
     39 H11         -2.5490     1.8960    -3.0070 ha         1 0C8       0.126000
     40 H12         -1.4000     1.6650    -0.8470 ha         1 0C8       0.095000
@<TRIPOS>BOND
     1     1     5 ar  
     2     1     6 ar  
     3     2     6 ar  
     4     2     7 ar  
     5     3     7 1   
     6     3     9 1   
     7     3    29 1   
     8     4     6 1   
     9     4    16 1   
    10     4    30 1   
    11     5     8 ar  
    12     5    31 1   
    13     7     8 ar  
    14     8    32 1   
    15     9    10 ar  
    16     9    14 ar  
    17    10    11 ar  
    18    10    33 1   
    19    11    12 ar  
    20    11    34 1   
    21    12    13 ar  
    22    12    35 1   
    23    13    14 ar  
    24    13    36 1   
    25    14    25 1   
    26    15    25 1   
    27    15    26 1   
    28    15    27 1   
    29    15    28 1   
    30    16    17 ar  
    31    16    21 ar  
    32    17    18 ar  
    33    17    37 1   
    34    18    19 ar  
    35    18    38 1   
    36    19    20 ar  
    37    19    22 1   
    38    20    21 ar  
    39    20    39 1   
    40    21    40 1   
    41    22    23 1   
    42    22    24 1   
@<TRIPOS>SUBSTRUCTURE
     1 0C8         1 TEMP              0 ****  ****    0 ROOT
