@<TRIPOS>MOLECULE
molecule
   40    42     1     0     0
SMALL
bcc


@<TRIPOS>ATOM
      1 N01          0.0000     0.0000     0.0000 nb         1 0C8      -0.789000
      2 N02         -0.0730     0.0000     2.3120 nb         1 0C8      -0.874000
      3 N03          1.8890    -0.0000     3.6190 nu         1 0C8      -0.764300
      4 N04         -2.0660    -0.0000     1.0910 nu         1 0C8      -0.740300
      5 C05          1.3260     0.0000     0.0000 ca         1 0C8       0.525200
      6 C06         -0.6810     0.0000     1.1350 ca         1 0C8       0.972900
      7 C07          1.2540    -0.0000     2.3870 ca         1 0C8       0.750200
      8 C08          2.0000     0.0000     1.2050 ca         1 0C8      -0.509600
      9 C09          1.1360    -0.1000     4.7940 ca         1 0C8       0.171600
     10 C10         -0.0940    -0.7420     4.7800 ca         1 0C8      -0.108000
     11 C11         -0.8360    -0.8400     5.9420 ca         1 0C8      -0.129000
     12 C12         -0.3560    -0.3000     7.1210 ca         1 0C8      -0.125000
     13 C13          0.8700     0.3420     7.1430 ca         1 0C8      -0.183000
     14 C14          1.6220     0.4390     5.9840 ca         1 0C8       0.066100
     15 C15          3.2560     1.6080     7.2560 c3         1 0C8       0.796700
     16 C16         -2.7250     0.1340    -0.1280 ca         1 0C8       0.105600
     17 C17         -3.8570    -0.6310    -0.3930 ca         1 0C8      -0.161000
     18 C18         -4.5110    -0.5000    -1.5970 ca         1 0C8      -0.091500
     19 C19         -4.0360     0.4020    -2.5550 ca         1 0C8      -0.105600
     20 C20         -2.8970     1.1680    -2.2840 ca         1 0C8      -0.091500
     21 C21         -2.2520     1.0370    -1.0760 ca         1 0C8      -0.161000
     22 C22         -4.7290     0.5400    -3.8470 c          1 0C8       0.881200
     23 O23         -4.3130     1.3210    -4.6800 o          1 0C8      -0.838300
     24 O24         -5.8260    -0.1990    -4.1070 o          1 0C8      -0.838300
     25 O25          2.8260     1.0690     6.0040 os         1 0C8      -0.347900
     26 F26          3.3540     0.5770     8.1980 f          1 0C8      -0.208300
     27 F27          4.5060     2.2160     7.0980 f          1 0C8      -0.208300
     28 F28          2.3280     2.5560     7.6980 f          1 0C8      -0.208300
     29 H1           2.8880     0.0410     3.6670 hn         1 0C8       0.463800
     30 H2          -2.5930    -0.0630     1.9400 hn         1 0C8       0.452800
     31 H3           1.8740     0.0000    -0.9350 h4         1 0C8       0.028100
     32 H4           3.0830    -0.0000     1.2340 ha         1 0C8       0.133000
     33 H5          -0.4720    -1.1660     3.8580 ha         1 0C8       0.187000
     34 H6          -1.7960    -1.3420     5.9290 ha         1 0C8       0.136000
     35 H7          -0.9410    -0.3770     8.0290 ha         1 0C8       0.131000
     36 H8           1.2440     0.7620     8.0680 ha         1 0C8       0.143000
     37 H9          -4.2250    -1.3280     0.3490 ha         1 0C8       0.115000
     38 H10         -5.3620    -1.1320    -1.8230 ha         1 0C8       0.153000
     39 H11         -2.5490     1.8960    -3.0070 ha         1 0C8       0.153000
     40 H12         -1.4000     1.6650    -0.8470 ha         1 0C8       0.115000
@<TRIPOS>BOND
     1    23    22 1   
     2    24    22 1   
     3    22    19 1   
     4    12    11 ar  
     5    12    13 ar  
     6    19    20 ar  
     7    19    18 ar  
     8    11    10 ar  
     9    20    21 ar  
    10    13    14 ar  
    11    18    17 ar  
    12    10     9 ar  
    13    21    16 ar  
    14    14     9 ar  
    15    14    25 1   
    16    27    15 1   
    17     9     3 1   
    18    17    16 ar  
    19    25    15 1   
    20    16     4 1   
    21    15    26 1   
    22    15    28 1   
    23     3     7 1   
    24     2     7 ar  
    25     2     6 ar  
    26     4     6 1   
    27     7     8 ar  
    28     6     1 ar  
    29     8     5 ar  
    30     1     5 ar  
    31     3    29 1   
    32     4    30 1   
    33     5    31 1   
    34     8    32 1   
    35    10    33 1   
    36    11    34 1   
    37    12    35 1   
    38    13    36 1   
    39    17    37 1   
    40    18    38 1   
    41    20    39 1   
    42    21    40 1   
@<TRIPOS>SUBSTRUCTURE
     1 0C8         1 TEMP              0 ****  ****    0 ROOT
