@<TRIPOS>MOLECULE
0C9
   38    40     1     0     0
SMALL
bcc


@<TRIPOS>ATOM
      1 N01          0.1090    -0.2600    -0.0770 nu         1 0C9      -0.678300
      2 N02          0.2100     1.4160    -1.8130 nb         1 0C9      -0.765000
      3 N03         -1.8880     0.9320    -0.6200 nb         1 0C9      -0.819000
      4 C05          3.7600     0.2990     0.5240 ca         1 0C9      -0.104500
      5 C06          3.8290     0.1990     1.9150 ca         1 0C9      -0.131600
      6 C07          2.6440     0.0150     2.6330 ca         1 0C9      -0.104500
      7 C08          1.4220    -0.0820     1.9810 ca         1 0C9      -0.165500
      8 C09          1.3540    -0.0090     0.5690 ca         1 0C9       0.077600
      9 C10          2.5440     0.1970    -0.1530 ca         1 0C9      -0.165500
     10 C12         -0.5250     0.7600    -0.8510 ca         1 0C9       0.875900
     11 C13         -0.4660     2.3050    -2.6150 ca         1 0C9       0.719200
     12 C14         -1.8790     2.5270    -2.4340 ca         1 0C9      -0.471600
     13 C15         -2.5110     1.8070    -1.4260 ca         1 0C9       0.461200
     14 C16          1.4240     2.7840    -4.1700 ca         1 0C9       0.151600
     15 C17          2.5510     2.4570    -3.3840 ca         1 0C9      -0.148000
     16 C18          3.7910     2.2480    -3.9790 ca         1 0C9      -0.134000
     17 C19          3.9410     2.3660    -5.3580 ca         1 0C9      -0.179000
     18 C20          2.8380     2.6980    -6.1410 ca         1 0C9      -0.101000
     19 C21          1.5780     2.9150    -5.5780 ca         1 0C9      -0.160600
     20 C22          0.4600     3.2870    -6.5390 c          1 0C9       0.911200
     21 O23         -0.5610     3.9140    -6.1160 o          1 0C9      -0.839300
     22 O24          0.6010     2.9750    -7.7550 o          1 0C9      -0.839300
     23 O25          6.2150     0.4040     1.9640 o          1 0C9      -0.841300
     24 O26          5.1480     0.1970     3.9100 o          1 0C9      -0.841300
     25 H1          -0.5430    -0.6710     0.5690 hn         1 0C9       0.396800
     26 H2          -0.4600     3.5550    -4.2100 hn         1 0C9       0.489800
     27 H3           4.6970     0.4550    -0.0360 ha         1 0C9       0.147500
     28 H4           2.7050    -0.0510     3.7320 ha         1 0C9       0.147500
     29 H5           0.5060    -0.2270     2.5720 ha         1 0C9       0.125500
     30 H6           2.5240     0.2740    -1.2510 ha         1 0C9       0.125500
     31 H7          -2.4310     3.2220    -3.0750 ha         1 0C9       0.152000
     32 H8          -3.5930     1.9330    -1.2380 h4         1 0C9      -0.003900
     33 H9           2.4690     2.3640    -2.2900 ha         1 0C9       0.154000
     34 H10          4.6530     1.9900    -3.3480 ha         1 0C9       0.120000
     35 H11          4.9200     2.1960    -5.8250 ha         1 0C9       0.105000
     36 H12          2.9300     2.7820    -7.2360 ha         1 0C9       0.146000
     37 C11          5.1580     0.2750     2.6460 c          1 0C9       0.907200
     38 N04          0.1740     3.0670    -3.5810 nu         1 0C9      -0.719300
@<TRIPOS>BOND
     1     1     8 1   
     2     1    10 1   
     3     1    25 1   
     4     2    10 ar  
     5     2    11 ar  
     6     3    10 ar  
     7     3    13 ar  
     8     4     5 ar  
     9     4     9 ar  
    10     4    27 1   
    11     5     6 ar  
    12     5    37 1   
    13     6     7 ar  
    14     6    28 1   
    15     7     8 ar  
    16     7    29 1   
    17     8     9 ar  
    18     9    30 1   
    19    11    12 ar  
    20    11    38 1   
    21    12    13 ar  
    22    12    31 1   
    23    13    32 1   
    24    14    15 ar  
    25    14    19 ar  
    26    14    38 1   
    27    15    16 ar  
    28    15    33 1   
    29    16    17 ar  
    30    16    34 1   
    31    17    18 ar  
    32    17    35 1   
    33    18    19 ar  
    34    18    36 1   
    35    19    20 1   
    36    20    21 1   
    37    20    22 1   
    38    23    37 1   
    39    24    37 1   
    40    26    38 1   
@<TRIPOS>SUBSTRUCTURE
     1 0C9         1 TEMP              0 ****  ****    0 ROOT
