@<TRIPOS>MOLECULE
0C9
   38    40     1     0     0
SMALL
bcc


@<TRIPOS>ATOM
      1 N01          0.0000     0.0000     0.0000 nu         1 0C9      -0.295300
      2 N02         -1.5600     0.5810    -1.6410 nb         1 0C9      -0.768000
      3 N03          0.6050     1.3810    -1.7860 nb         1 0C9      -0.741000
      4 C05          3.6670     0.0000     0.0000 ca         1 0C9      -0.063500
      5 C06          3.9300     0.0000     1.3740 ca         1 0C9      -0.132600
      6 C07          2.8680     0.0000     2.2850 ca         1 0C9      -0.063500
      7 C08          1.5710    -0.0000     1.8270 ca         1 0C9      -0.161500
      8 C09          1.3140    -0.0010     0.4600 ca         1 0C9      -0.018400
      9 C10          2.3670     0.0000    -0.4500 ca         1 0C9      -0.161500
     10 C12         -0.3260     0.6690    -1.1690 ca         1 0C9       0.739900
     11 C13         -1.9040     1.2110    -2.7600 ca         1 0C9       0.616200
     12 C14         -0.9430     1.9690    -3.4330 ca         1 0C9      -0.480600
     13 C15          0.3320     2.0340    -2.9060 ca         1 0C9       0.505200
     14 C16         -3.5170     1.6850    -4.4790 ca         1 0C9       0.004600
     15 C17         -4.1820     2.9040    -4.5320 ca         1 0C9      -0.138000
     16 C18         -4.4980     3.4670    -5.7520 ca         1 0C9      -0.135000
     17 C19         -4.1570     2.8230    -6.9320 ca         1 0C9      -0.142000
     18 C20         -3.4980     1.6140    -6.8990 ca         1 0C9      -0.064000
     19 C21         -3.1650     1.0340    -5.6720 ca         1 0C9      -0.090600
     20 C22         -2.4590    -0.2590    -5.6300 c          1 0C9       0.966200
     21 O23         -2.0510    -0.8410    -6.7750 o          1 0C9      -0.873800
     22 O24         -2.2450    -0.8000    -4.5640 o          1 0C9      -0.873800
     23 O25          6.2410    -0.0000     1.0670 o          1 0C9      -0.901800
     24 O26          5.5730    -0.0010     3.1840 o          1 0C9      -0.901800
     25 H1          -0.7080    -0.4920     0.5090 hn         1 0C9       0.275800
     26 H2          -3.9090     0.6760    -2.7040 hn         1 0C9       0.276800
     27 H3           4.4860     0.0000    -0.7090 ha         1 0C9       0.117500
     28 H4           3.0680     0.0000     3.3500 ha         1 0C9       0.117500
     29 H5           0.7490    -0.0000     2.5320 ha         1 0C9       0.107500
     30 H6           2.1620     0.0000    -1.5140 ha         1 0C9       0.107500
     31 H7          -1.1920     2.4940    -4.3470 ha         1 0C9       0.130000
     32 H8           1.1010     2.6140    -3.4030 h4         1 0C9      -0.037900
     33 H9          -4.4520     3.4140    -3.6150 ha         1 0C9       0.092000
     34 H10         -5.0170     4.4170    -5.7880 ha         1 0C9       0.080000
     35 H11         -4.4130     3.2720    -7.8840 ha         1 0C9       0.081000
     36 H12         -3.2320     1.1170    -7.8240 ha         1 0C9       0.129000
     37 C11          5.3210    -0.0000     1.8600 c          1 0C9       0.983200
     38 N04         -3.1970     1.1170    -3.2520 nu         1 0C9      -0.286300
@<TRIPOS>BOND
     1     1     8 1   
     2     1    10 1   
     3     1    25 1   
     4     2    10 ar  
     5     2    11 ar  
     6     3    10 ar  
     7     3    13 ar  
     8     4     5 ar  
     9     4     9 ar  
    10     4    27 1   
    11     5     6 ar  
    12     5    37 1   
    13     6     7 ar  
    14     6    28 1   
    15     7     8 ar  
    16     7    29 1   
    17     8     9 ar  
    18     9    30 1   
    19    11    12 ar  
    20    11    38 1   
    21    12    13 ar  
    22    12    31 1   
    23    13    32 1   
    24    14    15 ar  
    25    14    19 ar  
    26    14    38 1   
    27    15    16 ar  
    28    15    33 1   
    29    16    17 ar  
    30    16    34 1   
    31    17    18 ar  
    32    17    35 1   
    33    18    19 ar  
    34    18    36 1   
    35    19    20 1   
    36    20    21 1   
    37    20    22 1   
    38    23    37 1   
    39    24    37 1   
    40    26    38 1   
@<TRIPOS>SUBSTRUCTURE
     1 0C9         1 TEMP              0 ****  ****    0 ROOT
