@<TRIPOS>MOLECULE
molecule
   38    40     1     0     0
SMALL
bcc


@<TRIPOS>ATOM
      1 N01          0.0000     0.0000     0.0000 nu         1 0C9      -0.759300
      2 N02         -1.5600     0.5810    -1.6410 nb         1 0C9      -0.867000
      3 N03          0.6050     1.3810    -1.7860 nb         1 0C9      -0.826000
      4 C05          3.6670     0.0000     0.0000 ca         1 0C9      -0.091500
      5 C06          3.9300     0.0000     1.3740 ca         1 0C9      -0.132600
      6 C07          2.8680     0.0000     2.2850 ca         1 0C9      -0.091500
      7 C08          1.5710    -0.0000     1.8270 ca         1 0C9      -0.177000
      8 C09          1.3140    -0.0010     0.4600 ca         1 0C9       0.141600
      9 C10          2.3670     0.0000    -0.4500 ca         1 0C9      -0.177000
     10 C12         -0.3260     0.6690    -1.1690 ca         1 0C9       0.967900
     11 C13         -1.9040     1.2110    -2.7600 ca         1 0C9       0.807200
     12 C14         -0.9430     1.9690    -3.4330 ca         1 0C9      -0.479600
     13 C15          0.3320     2.0340    -2.9060 ca         1 0C9       0.503200
     14 C16         -3.5170     1.6850    -4.4790 ca         1 0C9       0.155600
     15 C17         -4.1820     2.9040    -4.5320 ca         1 0C9      -0.164000
     16 C18         -4.4980     3.4670    -5.7520 ca         1 0C9      -0.156000
     17 C19         -4.1570     2.8230    -6.9320 ca         1 0C9      -0.166000
     18 C20         -3.4980     1.6140    -6.8990 ca         1 0C9      -0.093000
     19 C21         -3.1650     1.0340    -5.6720 ca         1 0C9      -0.098600
     20 C22         -2.4590    -0.2590    -5.6300 c          1 0C9       0.876200
     21 O23         -2.0510    -0.8410    -6.7750 o          1 0C9      -0.824300
     22 O24         -2.2450    -0.8000    -4.5640 o          1 0C9      -0.824300
     23 O25          6.2410    -0.0000     1.0670 o          1 0C9      -0.854300
     24 O26          5.5730    -0.0010     3.1840 o          1 0C9      -0.854300
     25 H1          -0.7080    -0.4920     0.5090 hn         1 0C9       0.446800
     26 H2          -3.9090     0.6760    -2.7040 hn         1 0C9       0.446800
     27 H3           4.4860     0.0000    -0.7090 ha         1 0C9       0.143500
     28 H4           3.0680     0.0000     3.3500 ha         1 0C9       0.143500
     29 H5           0.7490    -0.0000     2.5320 ha         1 0C9       0.125000
     30 H6           2.1620     0.0000    -1.5140 ha         1 0C9       0.125000
     31 H7          -1.1920     2.4940    -4.3470 ha         1 0C9       0.142000
     32 H8           1.1010     2.6140    -3.4030 h4         1 0C9       0.010100
     33 H9          -4.4520     3.4140    -3.6150 ha         1 0C9       0.114000
     34 H10         -5.0170     4.4170    -5.7880 ha         1 0C9       0.100000
     35 H11         -4.4130     3.2720    -7.8840 ha         1 0C9       0.102000
     36 H12         -3.2320     1.1170    -7.8240 ha         1 0C9       0.155000
     37 C11          5.3210    -0.0000     1.8600 c          1 0C9       0.889200
     38 N04         -3.1970     1.1170    -3.2520 nu         1 0C9      -0.756300
@<TRIPOS>BOND
     1    23    37 1
     2    24    37 1
     3    37     5 1
     4    17    16 ar
     5    17    18 ar
     6    16    15 ar
     7     5     4 ar
     8     5     6 ar
     9     4     9 ar
    10    18    19 ar
    11     6     7 ar
    12    15    14 ar
    13     9     8 ar
    14    19    14 ar
    15    19    20 1
    16    14    38 1
    17     7     8 ar
    18    20    22 1
    19    20    21 1
    20     8     1 1
    21    38    11 1
    22     2    11 ar
    23     2    10 ar
    24     1    10 1
    25    11    12 ar
    26    10     3 ar
    27    12    13 ar
    28     3    13 ar
    29     1    25 1
    30    38    26 1
    31     4    27 1
    32     6    28 1
    33     7    29 1
    34     9    30 1
    35    12    31 1
    36    13    32 1
    37    15    33 1
    38    16    34 1
    39    17    35 1
    40    18    36 1
@<TRIPOS>SUBSTRUCTURE
     1 0C9         1 TEMP              0 ****  ****    0 ROOT
