@<TRIPOS>MOLECULE
0CA
   74    78     1     0     0
SMALL
bcc


@<TRIPOS>ATOM
      1 C13          0.0810    -2.1910     1.3120 ca         1 0CA      -0.068600
      2 C30         -0.7560    -5.8770     4.1470 ca         1 0CA      -0.194900
      3 C14          1.4720    -2.1000     1.1730 ca         1 0CA      -0.166000
      4 C16         -2.0230     0.0420     3.3110 cc         1 0CA      -0.121300
      5 C21         -3.2360     0.7010     3.8730 c3         1 0CA      -0.000500
      6 C22         -0.2120    -1.2900     5.5430 ca         1 0CA      -0.114300
      7 C23          0.8890    -1.6700     6.3560 ca         1 0CA      -0.091000
      8 C24          1.2140    -2.9950     6.5290 ca         1 0CA      -0.130000
      9 C25         -1.0140    -2.2760     5.0070 ca         1 0CA      -0.089000
     10 C26         -0.6210    -3.6380     5.0590 ca         1 0CA      -0.049000
     11 C27          0.5040    -4.0120     5.8350 ca         1 0CA      -0.010000
     12 C11          2.1920    -1.1020     1.8430 ca         1 0CA       0.111100
     13 C2           6.0480    -0.6560    -0.9990 c3         1 0CA       0.180300
     14 C3           5.2090    -0.2570     0.2130 c3         1 0CA      -0.124900
     15 C4           4.1670    -1.3330     0.5060 c3         1 0CA       0.144100
     16 C5           4.8260    -2.7020     0.6390 c3         1 0CA      -0.124900
     17 C6           5.6800    -3.0020    -0.5920 c3         1 0CA       0.180300
     18 C31         -1.2530    -4.5940     4.2190 ca         1 0CA      -0.049000
     19 N33         -1.7170    -8.0100     3.5030 n2         1 0CA      -0.727100
     20 N34         -1.3210    -6.2900     1.7760 nz         1 0CA      -0.915600
     21 C29          0.3120    -6.2850     4.9920 ca         1 0CA      -0.094000
     22 C28          0.9190    -5.3730     5.8210 ca         1 0CA      -0.115000
     23 N15         -0.6890     0.4200     3.7610 na         1 0CA      -0.035400
     24 C38         -3.2320     2.1880     3.5720 c3         1 0CA      -0.088600
     25 C39         -4.5000     0.0580     3.3350 c3         1 0CA      -0.088600
     26 C17         -1.9720    -0.9010     2.3070 cd         1 0CA      -0.117200
     27 C18         -0.5690    -1.2110     2.0560 ca         1 0CA      -0.078800
     28 C35         -0.6080    -3.4530     0.9120 c          1 0CA       0.923200
     29 O36         -1.8290    -3.6590     1.2390 o          1 0CA      -0.860800
     30 O37          0.0550    -4.4100     0.3970 o          1 0CA      -0.860800
     31 C19          0.1960    -0.3120     2.8810 ca         1 0CA      -0.070200
     32 C12          1.5760    -0.2190     2.7530 ca         1 0CA      -0.133000
     33 O10          3.5700    -0.9790     1.7670 os         1 0CA      -0.338900
     34 N1           6.6560    -1.9770    -0.9380 nh         1 0CA      -0.692600
     35 C20         -0.4200     0.1590     5.1770 c3         1 0CA       0.049600
     36 C7           7.9160    -2.0970    -0.2580 c2         1 0CA       0.586200
     37 C32         -1.3130    -6.8440     3.1640 ce         1 0CA       0.619800
     38 N9           8.4300    -1.1290     0.4380 n2         1 0CA      -0.824100
     39 C8           8.6180    -3.4260    -0.4900 c3         1 0CA      -0.183400
     40 H1           1.9860    -2.8570     0.5590 ha         1 0CA       0.160000
     41 H2          -3.2320     0.5670     4.9960 hc         1 0CA       0.044700
     42 H3           1.4910    -0.8840     6.8380 ha         1 0CA       0.138000
     43 H4           2.0580    -3.2860     7.1720 ha         1 0CA       0.137000
     44 H5          -1.9370    -2.0300     4.4540 ha         1 0CA       0.161000
     45 H9           5.3810    -0.6710    -1.9110 h1         1 0CA       0.057700
     46 H10          6.8420     0.1220    -1.1690 h1         1 0CA       0.057700
     47 H11          5.8610    -0.1120     1.1130 hc         1 0CA       0.064950
     48 H12          4.6970     0.7160     0.0040 hc         1 0CA       0.064950
     49 H13          3.3940    -1.3510    -0.3110 h1         1 0CA       0.059700
     50 H14          5.4530    -2.7180     1.5670 hc         1 0CA       0.064950
     51 H15          4.0430    -3.4960     0.7440 hc         1 0CA       0.064950
     52 H16          6.1970    -3.9890    -0.4460 h1         1 0CA       0.057700
     53 H17          5.0000    -3.0990    -1.4880 h1         1 0CA       0.057700
     54 H19         -2.0920    -4.2510     3.5850 ha         1 0CA       0.169000
     55 H20         -2.0670    -8.6370     2.8100 hn         1 0CA       0.416400
     56 H21         -1.6450    -6.9570     1.0820 hn         1 0CA       0.481800
     57 H22         -1.9150    -5.4100     1.7110 hn         1 0CA       0.481800
     58 H23          0.6480    -7.3320     4.9680 ha         1 0CA       0.143000
     59 H24          1.7560    -5.6780     6.4680 ha         1 0CA       0.142000
     60 H25          0.5140     0.7360     5.4320 h1         1 0CA       0.068700
     61 H26         -1.2740     0.5820     5.7780 h1         1 0CA       0.068700
     62 H27         -2.3440     2.6800     4.0340 hc         1 0CA       0.039200
     63 H28         -3.2000     2.3640     2.4700 hc         1 0CA       0.039200
     64 H29         -4.1580     2.6600     3.9820 hc         1 0CA       0.039200
     65 H30         -4.5020    -1.0380     3.5460 hc         1 0CA       0.039200
     66 H31         -5.3940     0.5200     3.8190 hc         1 0CA       0.039200
     67 H32         -4.5780     0.2060     2.2310 hc         1 0CA       0.039200
     68 H33         -2.7930    -1.3610     1.7600 ha         1 0CA       0.180000
     69 H35          2.1810     0.4870     3.3360 ha         1 0CA       0.151000
     70 H37          8.3450    -3.8730    -1.4770 hc         1 0CA       0.054367
     71 H38          9.7260    -3.2860    -0.4710 hc         1 0CA       0.054367
     72 H39          8.3350    -4.1410     0.3210 hc         1 0CA       0.054367
     73 H6           9.3540    -1.3090     0.7700 hn         1 0CA       0.387400
     74 H343        -0.3700    -5.9520     1.4990 hn         1 0CA       0.481800
@<TRIPOS>BOND
     1     1     3 ar  
     2     1    27 ar  
     3     1    28 1   
     4     2    18 ar  
     5     2    21 ar  
     6     2    37 1   
     7     3    12 ar  
     8     3    40 1   
     9     4     5 1   
    10     4    23 1   
    11     4    26 2   
    12     5    24 1   
    13     5    25 1   
    14     5    41 1   
    15     6     7 ar  
    16     6     9 ar  
    17     6    35 1   
    18     7     8 ar  
    19     7    42 1   
    20     8    11 ar  
    21     8    43 1   
    22     9    10 ar  
    23     9    44 1   
    24    10    11 ar  
    25    10    18 ar  
    26    11    22 ar  
    27    12    32 ar  
    28    12    33 1   
    29    13    14 1   
    30    13    34 1   
    31    13    45 1   
    32    13    46 1   
    33    14    15 1   
    34    14    47 1   
    35    14    48 1   
    36    15    16 1   
    37    15    33 1   
    38    15    49 1   
    39    16    17 1   
    40    16    50 1   
    41    16    51 1   
    42    17    34 1   
    43    17    52 1   
    44    17    53 1   
    45    18    54 1   
    46    19    37 2   
    47    19    55 1   
    48    20    37 1   
    49    20    56 1   
    50    20    57 1   
    51    20    74 1   
    52    21    22 ar  
    53    21    58 1   
    54    22    59 1   
    55    23    31 1   
    56    23    35 1   
    57    24    62 1   
    58    24    63 1   
    59    24    64 1   
    60    25    65 1   
    61    25    66 1   
    62    25    67 1   
    63    26    27 1   
    64    26    68 1   
    65    27    31 ar  
    66    28    29 1   
    67    28    30 1   
    68    31    32 ar  
    69    32    69 1   
    70    34    36 1   
    71    35    60 1   
    72    35    61 1   
    73    36    38 2   
    74    36    39 1   
    75    38    73 1   
    76    39    70 1   
    77    39    71 1   
    78    39    72 1   
@<TRIPOS>SUBSTRUCTURE
     1 0CA         1 TEMP              0 ****  ****    0 ROOT
