@<TRIPOS>MOLECULE
molecule
   74    78     1     0     0
SMALL
bcc


@<TRIPOS>ATOM
      1 C13          0.0000     0.0000     0.0000 ca         1 0CA       0.000400
      2 C30          2.5510     5.2020     5.9100 ca         1 0CA      -0.193900
      3 C14          1.3930     0.0000     0.0000 ca         1 0CA      -0.223000
      4 C16         -2.1610    -0.0040     2.9410 cc         1 0CA      -0.130300
      5 C21         -3.4310    -0.0050     3.7540 c3         1 0CA      -0.000500
      6 C22         -0.3370     1.4110     5.3510 ca         1 0CA      -0.073300
      7 C23         -1.3820     2.1260     5.9340 ca         1 0CA      -0.064000
      8 C24         -1.2030     3.4050     6.3620 ca         1 0CA      -0.132000
      9 C25          0.8920     1.9720     5.1920 ca         1 0CA      -0.087000
     10 C26          1.1150     3.2930     5.6220 ca         1 0CA      -0.072000
     11 C27          0.0520     4.0190     6.2160 ca         1 0CA      -0.020000
     12 C11          2.0900     0.0000     1.2000 ca         1 0CA       0.144100
     13 C2           6.1610     0.8590    -1.2680 c3         1 0CA       0.238300
     14 C3           5.4940     0.6960     0.1010 c3         1 0CA      -0.112400
     15 C4           4.0870     0.1240    -0.0850 c3         1 0CA       0.145100
     16 C5           4.1790    -1.2540    -0.7460 c3         1 0CA      -0.112400
     17 C6           4.8300    -1.1130    -2.1250 c3         1 0CA       0.238300
     18 C31          2.3700     3.9020     5.4740 ca         1 0CA      -0.014000
     19 N33          4.8560     5.2020     5.2010 n2         1 0CA      -0.684100
     20 N34          4.0560     7.1490     6.1820 nz         1 0CA      -0.800600
     21 C29          1.4890     5.9120     6.4960 ca         1 0CA      -0.170000
     22 C28          0.2680     5.3400     6.6500 ca         1 0CA      -0.066000
     23 N15         -0.8970    -0.0030     3.4590 na         1 0CA      -0.085400
     24 C38         -4.4940     0.8330     3.0400 c3         1 0CA      -0.085100
     25 C39         -3.9340    -1.4410     3.9100 c3         1 0CA      -0.085100
     26 C17         -2.1050    -0.0020     1.5970 cd         1 0CA      -0.098200
     27 C18         -0.6920    -0.0010     1.2290 ca         1 0CA      -0.105800
     28 C35         -0.7430     0.0060    -1.2720 c          1 0CA       0.878200
     29 O36         -0.0760     0.0130    -2.4420 o          1 0CA      -0.825300
     30 O37         -1.9580     0.0050    -1.2650 o          1 0CA      -0.825300
     31 C19          0.0280    -0.0020     2.4370 ca         1 0CA      -0.026200
     32 C12          1.4170    -0.0020     2.4090 ca         1 0CA      -0.235000
     33 O10          3.4500     0.0000     1.1870 os         1 0CA      -0.351900
     34 N1           6.1230    -0.4320    -1.9700 nh         1 0CA      -0.788600
     35 H1           1.9340     0.0010    -0.9390 ha         1 0CA       0.168000
     36 H2          -3.2340     0.4170     4.7320 hc         1 0CA       0.020700
     37 H3          -2.3520     1.6560     6.0490 ha         1 0CA       0.153000
     38 H4          -2.0250     3.9480     6.8130 ha         1 0CA       0.143000
     39 H5           1.6950     1.4050     4.7370 ha         1 0CA       0.168000
     40 H9           7.1900     1.1690    -1.1350 h1         1 0CA       0.059450
     41 H10          5.6230     1.6020    -1.8460 h1         1 0CA       0.059450
     42 H11          6.0810     0.0180     0.7090 hc         1 0CA       0.058700
     43 H12          5.4290     1.6610     0.5880 hc         1 0CA       0.058700
     44 H13          3.5110     0.7870    -0.7200 h1         1 0CA       0.066700
     45 H14          3.1830    -1.6670    -0.8590 hc         1 0CA       0.058700
     46 H15          4.7800    -1.9100    -0.1290 hc         1 0CA       0.058700
     47 H16          4.1870    -0.5280    -2.7710 h1         1 0CA       0.059450
     48 H17          4.9880    -2.0960    -2.5530 h1         1 0CA       0.059450
     49 H19          2.5350     3.4580     4.5000 ha         1 0CA       0.200000
     50 H20          5.7490     5.6410     5.0930 hn         1 0CA       0.421400
     51 H21          3.8740     7.2030     7.1650 hn         1 0CA       0.458467
     52 H22          4.9850     7.4720     5.9970 hn         1 0CA       0.458467
     53 H23          1.6480     6.9300     6.8320 ha         1 0CA       0.093000
     54 H24         -0.5400     5.9010     7.1040 ha         1 0CA       0.149000
     55 H25         -1.3980    -0.4330     5.4440 h1         1 0CA       0.066200
     56 H26          0.3210    -0.5920     5.0550 h1         1 0CA       0.066200
     57 H27         -4.0460     1.7500     2.6760 hc         1 0CA       0.038700
     58 H28         -5.2910     1.0710     3.7330 hc         1 0CA       0.038700
     59 H29         -4.8960     0.2720     2.2060 hc         1 0CA       0.038700
     60 H30         -4.7360    -1.4650     4.6380 hc         1 0CA       0.038700
     61 H31         -4.3010    -1.8000     2.9560 hc         1 0CA       0.038700
     62 H32         -3.1220    -2.0740     4.2460 hc         1 0CA       0.038700
     63 H33         -2.9380     0.1640     0.9240 ha         1 0CA       0.190000
     64 H35          1.9750    -0.0020     3.3380 ha         1 0CA       0.101000
     65 H37          8.4970     0.7400    -2.6630 hc         1 0CA       0.047367
     66 H38          8.8780    -0.2660    -1.2590 hc         1 0CA       0.047367
     67 H39          9.3400    -0.7990    -2.8810 hc         1 0CA       0.047367
     68 H6           8.0610    -2.5330    -3.4490 hn         1 0CA       0.398400
     69 C20         -0.5740    -0.0040     4.8870 c3         1 0CA       0.095600
     70 C7           7.2700    -0.9880    -2.4700 c2         1 0CA       0.651200
     71 H343         3.4250     7.7520     5.6930 hn         1 0CA       0.458467
     72 C32          3.8700     5.8540     5.7510 ce         1 0CA       0.545800
     73 N9           7.2230    -2.1250    -3.0840 n2         1 0CA      -0.912100
     74 C8           8.5870    -0.2770    -2.3020 c3         1 0CA      -0.186400
@<TRIPOS>BOND
     1     1     3 ar  
     2     1    27 ar  
     3     2    18 ar  
     4     2    21 ar  
     5     3    12 ar  
     6     3    35 1   
     7     4    23 1   
     8     4     5 1   
     9     5    24 1   
    10     5    36 1   
    11     6    69 1   
    12     6     7 ar  
    13     7    37 1   
    14     8     7 ar  
    15     8    38 1   
    16     9     6 ar  
    17     9    39 1   
    18    10     9 ar  
    19    10    11 ar  
    20    11     8 ar  
    21    12    33 1   
    22    12    32 ar  
    23    13    14 1   
    24    13    40 1   
    25    13    41 1   
    26    14    42 1   
    27    14    43 1   
    28    15    14 1   
    29    15    33 1   
    30    15    44 1   
    31    16    15 1   
    32    16    45 1   
    33    16    46 1   
    34    17    34 1   
    35    17    16 1   
    36    17    47 1   
    37    17    48 1   
    38    70    73 2   
    39    18    10 ar  
    40    18    49 1   
    41    72     2 1   
    42    19    72 2   
    43    19    50 1   
    44    20    72 1   
    45    20    51 1   
    46    20    52 1   
    47    21    22 ar  
    48    21    53 1   
    49    22    11 ar  
    50    22    54 1   
    51    69    55 1   
    52    69    56 1   
    53    23    69 1   
    54    24    57 1   
    55    24    58 1   
    56    24    59 1   
    57    25     5 1   
    58    25    60 1   
    59    25    61 1   
    60    25    62 1   
    61    26     4 2   
    62    26    63 1   
    63    27    26 1   
    64    27    31 ar  
    65    28    29 1   
    66    28     1 1   
    67    30    28 1   
    68    31    32 ar  
    69    31    23 1   
    70    32    64 1   
    71    34    70 1   
    72    34    13 1   
    73    74    70 1   
    74    74    65 1   
    75    74    66 1   
    76    74    67 1   
    77    73    68 1   
    78    71    20 1   
@<TRIPOS>SUBSTRUCTURE
     1 0CA         1 TEMP              0 ****  ****    0 ROOT
