@<TRIPOS>MOLECULE
0CA
   74    78     1     0     0
SMALL
bcc


@<TRIPOS>ATOM
      1 C13          0.0000     0.0000     0.0000 ca         1 0CA       0.021400
      2 C30          2.5510     5.2020     5.9100 ca         1 0CA      -0.200900
      3 C14          1.3930     0.0000     0.0000 ca         1 0CA      -0.221000
      4 C16         -2.1610    -0.0040     2.9410 cc         1 0CA      -0.317300
      5 C21         -3.4310    -0.0050     3.7540 c3         1 0CA       0.045500
      6 C22         -0.3370     1.4110     5.3510 ca         1 0CA      -0.068300
      7 C23         -1.3820     2.1260     5.9340 ca         1 0CA      -0.039000
      8 C24         -1.2030     3.4050     6.3620 ca         1 0CA      -0.098000
      9 C25          0.8920     1.9720     5.1920 ca         1 0CA      -0.076000
     10 C26          1.1150     3.2930     5.6220 ca         1 0CA      -0.051000
     11 C27          0.0520     4.0190     6.2160 ca         1 0CA      -0.026000
     12 C11          2.0900     0.0000     1.2000 ca         1 0CA       0.147100
     13 C2           6.1610     0.8590    -1.2680 c3         1 0CA       0.176300
     14 C3           5.4940     0.6960     0.1010 c3         1 0CA      -0.065400
     15 C4           4.0870     0.1240    -0.0850 c3         1 0CA       0.165100
     16 C5           4.1790    -1.2540    -0.7460 c3         1 0CA      -0.065400
     17 C6           4.8300    -1.1130    -2.1250 c3         1 0CA       0.176300
     18 C31          2.3700     3.9020     5.4740 ca         1 0CA      -0.078000
     19 N33          4.8560     5.2020     5.2010 n2         1 0CA      -0.505100
     20 N34          4.0560     7.1490     6.1820 nz         1 0CA       0.190400
     21 C29          1.4890     5.9120     6.4960 ca         1 0CA      -0.153000
     22 C28          0.2680     5.3400     6.6500 ca         1 0CA      -0.012000
     23 N15         -0.8970    -0.0030     3.4590 na         1 0CA       0.372600
     24 C38         -4.4940     0.8330     3.0400 c3         1 0CA       0.002400
     25 C39         -3.9340    -1.4410     3.9100 c3         1 0CA       0.002400
     26 C17         -2.1050    -0.0020     1.5970 cd         1 0CA      -0.061200
     27 C18         -0.6920    -0.0010     1.2290 ca         1 0CA      -0.101800
     28 C35         -0.7430     0.0060    -1.2720 c          1 0CA       0.964200
     29 O36         -0.0760     0.0130    -2.4420 o          1 0CA      -0.873300
     30 O37         -1.9580     0.0050    -1.2650 o          1 0CA      -0.873300
     31 C19          0.0280    -0.0020     2.4370 ca         1 0CA      -0.195200
     32 C12          1.4170    -0.0020     2.4090 ca         1 0CA      -0.221000
     33 O10          3.4500     0.0000     1.1870 os         1 0CA      -0.324900
     34 N1           6.1230    -0.4320    -1.9700 nh         1 0CA      -0.497600
     35 H1           1.9340     0.0010    -0.9390 ha         1 0CA       0.156000
     36 H2          -3.2340     0.4170     4.7320 hc         1 0CA      -0.002300
     37 H3          -2.3520     1.6560     6.0490 ha         1 0CA       0.125000
     38 H4          -2.0250     3.9480     6.8130 ha         1 0CA       0.116000
     39 H5           1.6950     1.4050     4.7370 ha         1 0CA       0.140000
     40 H9           7.1900     1.1690    -1.1350 h1         1 0CA       0.028950
     41 H10          5.6230     1.6020    -1.8460 h1         1 0CA       0.028950
     42 H11          5.4290     1.6610     0.5880 hc         1 0CA       0.030700
     43 H12          6.0810     0.0180     0.7090 hc         1 0CA       0.030700
     44 H13          3.5110     0.7870    -0.7200 h1         1 0CA       0.045700
     45 H14          3.1830    -1.6670    -0.8590 hc         1 0CA       0.030700
     46 H15          4.7800    -1.9100    -0.1290 hc         1 0CA       0.030700
     47 H16          4.9880    -2.0960    -2.5530 h1         1 0CA       0.028950
     48 H17          4.1870    -0.5280    -2.7710 h1         1 0CA       0.028950
     49 H19          2.5350     3.4580     4.4990 ha         1 0CA       0.171000
     50 H20          4.7220     4.2610     4.8870 hn         1 0CA       0.387400
     51 H21          3.4330     7.7580     5.6900 hn         1 0CA       0.217467
     52 H22          5.0020     7.4200     5.9970 hn         1 0CA       0.217467
     53 H23          1.6480     6.9300     6.8320 ha         1 0CA       0.077000
     54 H24         -0.5400     5.9010     7.1040 ha         1 0CA       0.118000
     55 H25         -1.3980    -0.4330     5.4440 h1         1 0CA       0.038700
     56 H26          0.3210    -0.5920     5.0550 h1         1 0CA       0.038700
     57 H27         -4.8560     0.2940     2.1730 hc         1 0CA       0.006867
     58 H28         -5.3180     1.0240     3.7170 hc         1 0CA       0.006867
     59 H29         -4.0600     1.7750     2.7250 hc         1 0CA       0.006867
     60 H30         -4.2400    -1.8230     2.9440 hc         1 0CA       0.006867
     61 H31         -3.1400    -2.0610     4.3090 hc         1 0CA       0.006867
     62 H32         -4.7790    -1.4550     4.5880 hc         1 0CA       0.006867
     63 H33         -2.9380     0.1640     0.9240 ha         1 0CA       0.168000
     64 H35          1.9750    -0.0020     3.3380 ha         1 0CA       0.088000
     65 H37          8.8520    -0.2490    -1.2520 hc         1 0CA       0.014033
     66 H38          9.3560    -0.8050    -2.8540 hc         1 0CA       0.014033
     67 H39          8.5020     0.7340    -2.6810 hc         1 0CA       0.014033
     68 H6           6.3480    -2.5980    -3.1950 hn         1 0CA       0.334400
     69 C20         -0.5740    -0.0040     4.8870 c3         1 0CA       0.010600
     70 C7           7.2700    -0.9880    -2.4700 c2         1 0CA       0.479200
     71 H343         3.8750     7.2090     7.1650 hn         1 0CA       0.217467
     72 C32          3.8700     5.8540     5.7510 ce         1 0CA       0.208800
     73 N9           7.2230    -2.1250    -3.0840 n2         1 0CA      -0.794100
     74 C8           8.5870    -0.2770    -2.3020 c3         1 0CA      -0.021400
@<TRIPOS>BOND
     1     1     3 ar  
     2     1    27 ar  
     3     1    28 1   
     4     2    18 ar  
     5     2    21 ar  
     6     2    72 1   
     7     3    12 ar  
     8     3    35 1   
     9     4     5 1   
    10     4    23 1   
    11     4    26 2   
    12     5    24 1   
    13     5    25 1   
    14     5    36 1   
    15     6     7 ar  
    16     6     9 ar  
    17     6    69 1   
    18     7     8 ar  
    19     7    37 1   
    20     8    11 ar  
    21     8    38 1   
    22     9    10 ar  
    23     9    39 1   
    24    10    11 ar  
    25    10    18 ar  
    26    11    22 ar  
    27    12    32 ar  
    28    12    33 1   
    29    13    14 1   
    30    13    34 1   
    31    13    40 1   
    32    13    41 1   
    33    14    15 1   
    34    14    42 1   
    35    14    43 1   
    36    15    16 1   
    37    15    33 1   
    38    15    44 1   
    39    16    17 1   
    40    16    45 1   
    41    16    46 1   
    42    17    34 1   
    43    17    47 1   
    44    17    48 1   
    45    18    49 1   
    46    19    50 1   
    47    19    72 2   
    48    20    51 1   
    49    20    52 1   
    50    20    71 1   
    51    20    72 1   
    52    21    22 ar  
    53    21    53 1   
    54    22    54 1   
    55    23    31 1   
    56    23    69 1   
    57    24    57 1   
    58    24    58 1   
    59    24    59 1   
    60    25    60 1   
    61    25    61 1   
    62    25    62 1   
    63    26    27 1   
    64    26    63 1   
    65    27    31 ar  
    66    28    29 1   
    67    28    30 1   
    68    31    32 ar  
    69    32    64 1   
    70    34    70 1   
    71    55    69 1   
    72    56    69 1   
    73    65    74 1   
    74    66    74 1   
    75    67    74 1   
    76    68    73 1   
    77    70    73 2   
    78    70    74 1   
@<TRIPOS>SUBSTRUCTURE
     1 0CA         1 TEMP              0 ****  ****    0 ROOT
