@<TRIPOS>MOLECULE
molecule
   69    72     1     0     0
SMALL
bcc


@<TRIPOS>ATOM
      1 C13          0.0000     0.0000     0.0000 ca         1 0CB      -0.066000
      2 C14          1.3570     0.0000     0.0000 ca         1 0CB      -0.167000
      3 C16          1.4160    -0.0000     2.4210 ca         1 0CB       0.015000
      4 C1          -2.1080    -0.0010     1.2450 ca         1 0CB      -0.133000
      5 C2          -2.7610    -0.0000     2.4400 ca         1 0CB      -0.066000
      6 C3          -2.0570    -0.0000     3.6420 ca         1 0CB      -0.057300
      7 C4          -0.6960     0.0000     3.6560 ca         1 0CB      -0.080000
      8 C5           0.0130    -0.0000     2.4420 ca         1 0CB      -0.073000
      9 C6          -0.7040    -0.0000     1.2180 ca         1 0CB      -0.010000
     10 O36         -5.3110    -1.2900     4.9970 o          1 0CB      -0.621300
     11 S32         -4.2820    -2.2660     5.0960 s6         1 0CB       1.320900
     12 O38         -4.3120    -3.2630     6.1080 o          1 0CB      -0.621300
     13 C34         -3.9320    -3.0110     3.4800 c3         1 0CB      -0.300600
     14 C53         -5.0040    -4.0150     3.1450 c          1 0CB       0.911600
     15 O57         -4.9520    -4.6940     1.9890 o          1 0CB      -0.809800
     16 O54         -5.9130    -4.2080     3.9190 o          1 0CB      -0.809800
     17 N30         -2.9310    -1.3740     5.4410 nh         1 0CB      -0.670900
     18 C28         -2.8130    -0.0000     4.9450 c3         1 0CB       0.266100
     19 C15          2.0780     0.0000     1.2070 ca         1 0CB      -0.223900
     20 N26          4.2240    -0.0000    -0.0300 nz         1 0CB      -0.800600
     21 N24          4.2320    -0.0000     2.2920 n2         1 0CB      -0.705100
     22 C40         -1.9010    -1.9310     6.2090 ca         1 0CB       0.144600
     23 C46         -1.7120    -3.3060     6.2220 ca         1 0CB      -0.123000
     24 C45         -0.6960    -3.8560     6.9780 ca         1 0CB      -0.168000
     25 C44          0.1350    -3.0340     7.7250 ca         1 0CB       0.102100
     26 C43         -0.0530    -1.6600     7.7120 ca         1 0CB      -0.168000
     27 C42         -1.0650    -1.1080     6.9520 ca         1 0CB      -0.123000
     28 O59          1.1360    -3.5760     8.4700 os         1 0CB      -0.319900
     29 C61          1.9130    -2.6770     9.2660 c3         1 0CB       0.208100
     30 C67          3.0190    -2.0620     8.4050 c3         1 0CB      -0.169900
     31 C66          3.8270    -1.0730     9.2510 c3         1 0CB       0.252800
     32 N65          4.3120    -1.7660    10.4530 nh         1 0CB      -0.786600
     33 C74          5.6440    -1.7550    10.7740 c2         1 0CB       0.659200
     34 C76          6.1420    -2.5640    11.9440 c3         1 0CB      -0.186400
     35 N82          6.4730    -1.0520    10.0750 n2         1 0CB      -0.927100
     36 C64          3.3410    -2.4690    11.3030 c3         1 0CB       0.252800
     37 C63          2.5380    -3.4410    10.4340 c3         1 0CB      -0.169900
     38 H1          -0.5420    -0.0000    -0.9380 ha         1 0CB       0.154000
     39 H2           1.8920     0.0000    -0.9420 ha         1 0CB       0.092000
     40 H3           1.9760    -0.0000     3.3490 ha         1 0CB       0.168000
     41 H4          -2.6990     0.1260     0.3460 ha         1 0CB       0.153000
     42 H5          -3.7300     0.4240     2.2070 ha         1 0CB       0.168000
     43 H6          -0.1460     0.6300     4.3450 ha         1 0CB       0.144000
     44 H7          -3.9130    -2.2370     2.7220 h1         1 0CB       0.083200
     45 H8          -2.9700    -3.5070     3.5120 h1         1 0CB       0.083200
     46 H10         -3.8020     0.4140     4.7890 h1         1 0CB       0.078200
     47 H11         -2.2800     0.6020     5.6710 h1         1 0CB       0.078200
     48 H12          5.2090    -0.0720     0.1320 hn         1 0CB       0.460800
     49 H13          4.0290     0.8460    -0.5270 hn         1 0CB       0.460800
     50 H14          5.2330    -0.0000     2.2720 hn         1 0CB       0.423400
     51 H15         -2.3610    -3.9480     5.6380 ha         1 0CB       0.150000
     52 H16         -0.5480    -4.9290     6.9880 ha         1 0CB       0.137500
     53 H17          0.5980    -1.0180     8.2940 ha         1 0CB       0.137500
     54 H18         -1.2120    -0.0350     6.9420 ha         1 0CB       0.150000
     55 H19          1.2780    -1.8890     9.6510 h1         1 0CB       0.026700
     56 H20          2.2010    -1.4380     8.7440 hc         1 0CB       0.072450
     57 H21          2.9530    -1.9700     7.3280 hc         1 0CB       0.072450
     58 H22          4.6710    -0.7100     8.6770 h1         1 0CB       0.052450
     59 H23          3.1940    -0.2430     9.5410 h1         1 0CB       0.052450
     60 H24          5.6610    -2.2210    12.8520 hc         1 0CB       0.053033
     61 H25          7.2150    -2.4430    12.0360 hc         1 0CB       0.053033
     62 H26          5.9090    -3.6100    11.7850 hc         1 0CB       0.053033
     63 H27          7.4460    -1.0450    10.3110 hn         1 0CB       0.402400
     64 H28          2.6700    -1.7500    11.7580 h1         1 0CB       0.052450
     65 H29          3.8670    -3.0200    12.0730 h1         1 0CB       0.052450
     66 H30          3.1970    -4.2100    10.0510 hc         1 0CB       0.072450
     67 H31          1.7540    -3.8930    11.0300 hc         1 0CB       0.072450
     68 C22          3.5580     0.0000     1.1770 ce         1 0CB       0.552800
     69 H263         3.9200    -0.7790    -0.5800 hn         1 0CB       0.460800
@<TRIPOS>BOND
     1     1     2 ar
     2     1     9 ar
     3     2    19 ar
     4    21    68 2
     5     4     9 ar
     6     4     5 ar
     7     9     8 ar
     8    19    68 1
     9    19     3 ar
    10    68    20 1
    11     5     6 ar
    12     8     3 ar
    13     8     7 ar
    14     6     7 ar
    15     6    18 1
    16    12    11 2
    17    18    17 1
    18    27    26 ar
    19    27    22 ar
    20    10    11 2
    21    17    11 1
    22    17    22 1
    23    11    13 1
    24    26    25 ar
    25    22    23 ar
    26    16    14 1
    27    31    30 1
    28    31    32 1
    29    14    15 1
    30    14    13 1
    31    25    28 1
    32    25    24 ar
    33    23    24 ar
    34    34    33 1
    35    28    29 1
    36    30    29 1
    37    32    33 1
    38    32    36 1
    39    33    35 2
    40    36    37 1
    41    29    37 1
    42     1    38 1
    43     2    39 1
    44     3    40 1
    45     4    41 1
    46     5    42 1
    47     7    43 1
    48    13    44 1
    49    13    45 1
    50    18    46 1
    51    18    47 1
    52    20    48 1
    53    20    49 1
    54    21    50 1
    55    23    51 1
    56    24    52 1
    57    26    53 1
    58    27    54 1
    59    29    55 1
    60    30    56 1
    61    30    57 1
    62    31    58 1
    63    31    59 1
    64    34    60 1
    65    34    61 1
    66    34    62 1
    67    35    63 1
    68    36    64 1
    69    36    65 1
    70    37    66 1
    71    37    67 1
    72    69    20 1
@<TRIPOS>SUBSTRUCTURE
     1 0CB         1 TEMP              0 ****  ****    0 ROOT
