@<TRIPOS>MOLECULE
0CB
   69    72     1     0     0
SMALL
bcc


@<TRIPOS>ATOM
      1 C13          0.0000     0.0000     0.0000 ca         1 0CB      -0.016000
      2 C14          1.3570     0.0000     0.0000 ca         1 0CB      -0.145000
      3 C16          1.4160    -0.0000     2.4210 ca         1 0CB       0.003000
      4 C1          -2.1080    -0.0010     1.2450 ca         1 0CB      -0.103000
      5 C2          -2.7610    -0.0000     2.4400 ca         1 0CB      -0.025000
      6 C3          -2.0570    -0.0000     3.6420 ca         1 0CB      -0.033300
      7 C4          -0.6960     0.0000     3.6560 ca         1 0CB      -0.073000
      8 C5           0.0130    -0.0000     2.4420 ca         1 0CB      -0.074000
      9 C6          -0.7040    -0.0000     1.2180 ca         1 0CB      -0.022000
     10 O36         -5.3110    -1.2910     4.9970 o          1 0CB      -0.568300
     11 S32         -4.2820    -2.2660     5.0960 s6         1 0CB       0.955900
     12 O38         -4.3120    -3.2630     6.1080 o          1 0CB      -0.568300
     13 C34         -3.9320    -3.0110     3.4800 c3         1 0CB      -0.093600
     14 C53         -5.0040    -4.0150     3.1450 c          1 0CB       1.001600
     15 O57         -4.9520    -4.6940     1.9890 o          1 0CB      -0.858300
     16 O54         -5.9130    -4.2080     3.9190 o          1 0CB      -0.858300
     17 N30         -2.9310    -1.3740     5.4410 nh         1 0CB      -0.378900
     18 C28         -2.8130    -0.0000     4.9450 c3         1 0CB       0.250100
     19 C15          2.0780     0.0000     1.2070 ca         1 0CB      -0.251900
     20 N26          4.2240    -0.0000    -0.0300 nz         1 0CB       0.190400
     21 N24          4.2320    -0.0000     2.2920 n2         1 0CB      -0.528100
     22 C40         -1.9010    -1.9310     6.2090 ca         1 0CB       0.081600
     23 C46         -1.7120    -3.3060     6.2220 ca         1 0CB      -0.109500
     24 C45         -0.6960    -3.8560     6.9780 ca         1 0CB      -0.154000
     25 C44          0.1350    -3.0340     7.7250 ca         1 0CB       0.100100
     26 C43         -0.0530    -1.6600     7.7120 ca         1 0CB      -0.154000
     27 C42         -1.0650    -1.1080     6.9520 ca         1 0CB      -0.109500
     28 O59          1.1360    -3.5760     8.4700 os         1 0CB      -0.291900
     29 C61          1.9130    -2.6770     9.2660 c3         1 0CB       0.251100
     30 C67          3.0190    -2.0620     8.4050 c3         1 0CB      -0.148900
     31 C66          3.8270    -1.0730     9.2510 c3         1 0CB       0.200800
     32 N65          4.3120    -1.7660    10.4530 nh         1 0CB      -0.496600
     33 C74          5.6440    -1.7550    10.7740 c2         1 0CB       0.491200
     34 C76          6.1420    -2.5640    11.9440 c3         1 0CB      -0.023400
     35 N82          6.4730    -1.0520    10.0750 n2         1 0CB      -0.796100
     36 C64          3.3410    -2.4690    11.3030 c3         1 0CB       0.200800
     37 C63          2.5380    -3.4410    10.4340 c3         1 0CB      -0.148900
     38 H1          -0.5420    -0.0000    -0.9380 ha         1 0CB       0.122000
     39 H2           1.8920     0.0000    -0.9420 ha         1 0CB       0.076000
     40 H3           1.9760    -0.0000     3.3490 ha         1 0CB       0.107000
     41 H4          -2.6110     0.0770     0.2880 ha         1 0CB       0.124000
     42 H5          -3.7220     0.4290     2.1820 ha         1 0CB       0.137000
     43 H6           0.0120     0.5570     4.2580 ha         1 0CB       0.117000
     44 H7          -3.9130    -2.2360     2.7220 h1         1 0CB       0.054700
     45 H8          -2.9700    -3.5070     3.5120 h1         1 0CB       0.054700
     46 H10         -3.8020     0.4140     4.7890 h1         1 0CB       0.044700
     47 H11         -2.2800     0.6020     5.6710 h1         1 0CB       0.044700
     48 H12          3.9850     0.8250    -0.5440 hn         1 0CB       0.218467
     49 H13          5.2130    -0.0210     0.1250 hn         1 0CB       0.218467
     50 H14          3.7510    -0.0000     3.1690 hn         1 0CB       0.381400
     51 H15         -2.3610    -3.9480     5.6380 ha         1 0CB       0.131500
     52 H16         -0.5480    -4.9290     6.9880 ha         1 0CB       0.114000
     53 H17          0.5980    -1.0180     8.2940 ha         1 0CB       0.114000
     54 H18         -1.2120    -0.0350     6.9420 ha         1 0CB       0.131500
     55 H19          1.2780    -1.8890     9.6510 h1         1 0CB       0.006700
     56 H20          2.2010    -1.4380     8.7450 hc         1 0CB       0.050200
     57 H21          2.9530    -1.9700     7.3280 hc         1 0CB       0.050200
     58 H22          4.6710    -0.7100     8.6770 h1         1 0CB       0.019450
     59 H23          3.1940    -0.2430     9.5410 h1         1 0CB       0.019450
     60 H24          7.2130    -2.4330    12.0440 hc         1 0CB       0.019367
     61 H25          5.6510    -2.2300    12.8500 hc         1 0CB       0.019367
     62 H26          5.9200    -3.6120    11.7800 hc         1 0CB       0.019367
     63 H27          6.1430    -0.5150     9.2980 hn         1 0CB       0.321400
     64 H28          2.6700    -1.7500    11.7580 h1         1 0CB       0.019450
     65 H29          3.8670    -3.0200    12.0730 h1         1 0CB       0.019450
     66 H30          3.1970    -4.2100    10.0510 hc         1 0CB       0.050200
     67 H31          1.7540    -3.8930    11.0300 hc         1 0CB       0.050200
     68 C22          3.5580     0.0000     1.1770 ce         1 0CB       0.228800
     69 H263         3.9680    -0.8100    -0.5590 hn         1 0CB       0.218467
@<TRIPOS>BOND
     1     1     2 ar  
     2     1     9 ar  
     3     1    38 1   
     4     2    19 ar  
     5     2    39 1   
     6     3     8 ar  
     7     3    19 ar  
     8     3    40 1   
     9     4     5 ar  
    10     4     9 ar  
    11     4    41 1   
    12     5     6 ar  
    13     5    42 1   
    14     6     7 ar  
    15     6    18 1   
    16     7     8 ar  
    17     7    43 1   
    18     8     9 ar  
    19    10    11 2   
    20    11    12 2   
    21    11    13 1   
    22    11    17 1   
    23    13    14 1   
    24    13    44 1   
    25    13    45 1   
    26    14    15 1   
    27    14    16 1   
    28    17    18 1   
    29    17    22 1   
    30    18    46 1   
    31    18    47 1   
    32    19    68 1   
    33    20    48 1   
    34    20    49 1   
    35    20    68 1   
    36    20    69 1   
    37    21    50 1   
    38    21    68 2   
    39    22    23 ar  
    40    22    27 ar  
    41    23    24 ar  
    42    23    51 1   
    43    24    25 ar  
    44    24    52 1   
    45    25    26 ar  
    46    25    28 1   
    47    26    27 ar  
    48    26    53 1   
    49    27    54 1   
    50    28    29 1   
    51    29    30 1   
    52    29    37 1   
    53    29    55 1   
    54    30    31 1   
    55    30    56 1   
    56    30    57 1   
    57    31    32 1   
    58    31    58 1   
    59    31    59 1   
    60    32    33 1   
    61    32    36 1   
    62    33    34 1   
    63    33    35 2   
    64    34    60 1   
    65    34    61 1   
    66    34    62 1   
    67    35    63 1   
    68    36    37 1   
    69    36    64 1   
    70    36    65 1   
    71    37    66 1   
    72    37    67 1   
@<TRIPOS>SUBSTRUCTURE
     1 0CB         1 TEMP              0 ****  ****    0 ROOT
