@<TRIPOS>MOLECULE
0CB
   69    72     1     0     0
SMALL
bcc


@<TRIPOS>ATOM
      1 C13         -0.5460     2.1870     0.0710 ca         1 0CB      -0.088000
      2 C14          0.7590     1.9470    -0.2810 ca         1 0CB      -0.118000
      3 C16          1.0220     0.4710     1.6440 ca         1 0CB      -0.069000
      4 C1          -2.4450     1.8660     1.6410 ca         1 0CB      -0.147000
      5 C2          -2.9550     1.3010     2.7860 ca         1 0CB      -0.060000
      6 C3          -2.1580     0.4280     3.5790 ca         1 0CB      -0.039300
      7 C4          -0.8680     0.1380     3.1960 ca         1 0CB      -0.128000
      8 C5          -0.3130     0.7260     2.0280 ca         1 0CB      -0.049000
      9 C6          -1.1110     1.6010     1.2360 ca         1 0CB      -0.006000
     10 O36         -6.3740    -1.2420     4.7430 o          1 0CB      -0.678300
     11 S32         -5.3570    -0.3650     5.1940 s6         1 0CB       1.458900
     12 O38         -5.4720     0.9500     4.6510 o          1 0CB      -0.678300
     13 C34         -5.3700    -0.3000     6.8650 c3         1 0CB      -0.509600
     14 C53         -4.0090    -0.4570     7.6130 c          1 0CB       0.954600
     15 O57         -3.7650    -1.5680     8.1470 o          1 0CB      -0.814300
     16 O54         -3.2360     0.5380     7.6090 o          1 0CB      -0.814300
     17 N30         -3.8740    -0.9400     4.7470 nh         1 0CB      -0.664900
     18 C28         -2.7070    -0.1100     4.8740 c3         1 0CB       0.241100
     19 C15          1.5540     1.0930     0.5270 ca         1 0CB      -0.239900
     20 N26          3.8610     1.3420     1.3200 nz         1 0CB      -0.902600
     21 N24          3.3920     0.3910    -0.9340 n2         1 0CB      -0.690100
     22 C40         -3.6410    -2.3080     4.4570 ca         1 0CB       0.097600
     23 C46         -3.2870    -3.2090     5.4840 ca         1 0CB      -0.093500
     24 C45         -3.0500    -4.5490     5.1950 ca         1 0CB      -0.181000
     25 C44         -3.1620    -5.0090     3.8780 ca         1 0CB       0.115100
     26 C43         -3.5190    -4.1270     2.8440 ca         1 0CB      -0.181000
     27 C42         -3.7520    -2.7880     3.1340 ca         1 0CB      -0.093500
     28 O59         -2.8810    -6.3040     3.4800 os         1 0CB      -0.345900
     29 C61         -3.1500    -7.3370     4.4490 c3         1 0CB       0.142100
     30 C67         -1.8560    -7.7250     5.1550 c3         1 0CB      -0.121400
     31 C66         -0.8870    -8.4290     4.2060 c3         1 0CB       0.180800
     32 N65         -1.4450    -9.5620     3.4780 nh         1 0CB      -0.690600
     33 C74         -1.4300   -10.8020     4.2020 c2         1 0CB       0.583200
     34 C76         -0.0430   -11.2410     4.6450 c3         1 0CB      -0.182400
     35 N82         -2.5000   -11.5110     4.4000 n2         1 0CB      -0.827100
     36 C64         -2.6800    -9.1940     2.7990 c3         1 0CB       0.180800
     37 C63         -3.7330    -8.5140     3.6710 c3         1 0CB      -0.121400
     38 C22          2.9620     0.8690     0.1530 ce         1 0CB       0.655800
     39 H1          -1.1790     2.8420    -0.5500 ha         1 0CB       0.154000
     40 H2           1.1910     2.3930    -1.1880 ha         1 0CB       0.142000
     41 H3           1.6080    -0.2450     2.2420 ha         1 0CB       0.126000
     42 H4          -3.0630     2.5380     1.0260 ha         1 0CB       0.147000
     43 H5          -3.9900     1.5210     3.1230 ha         1 0CB       0.208000
     44 H6          -0.2490    -0.5490     3.7930 ha         1 0CB       0.144000
     45 H7          -6.0350    -1.0930     7.3000 h1         1 0CB       0.133700
     46 H8          -5.7660     0.6870     7.2240 h1         1 0CB       0.133700
     47 H10         -2.9680     0.7870     5.5270 h1         1 0CB       0.103700
     48 H11         -1.8960    -0.6780     5.4180 h1         1 0CB       0.103700
     49 H12          3.5300     0.8940     2.1820 hn         1 0CB       0.452133
     50 H13          3.7430     2.3540     1.4220 hn         1 0CB       0.452133
     51 H14          4.3560     0.2860    -1.1580 hn         1 0CB       0.451400
     52 H15         -3.2110    -2.8510     6.5340 ha         1 0CB       0.171500
     53 H16         -2.7830    -5.2360     6.0110 ha         1 0CB       0.139500
     54 H17         -3.6130    -4.5050     1.8170 ha         1 0CB       0.139500
     55 H18         -4.0460    -2.1090     2.3190 ha         1 0CB       0.171500
     56 H19         -3.9040    -6.9750     5.2010 h1         1 0CB       0.064700
     57 H20         -2.1100    -8.3930     6.0180 hc         1 0CB       0.062700
     58 H21         -1.3540    -6.8080     5.5570 hc         1 0CB       0.062700
     59 H22         -0.5600    -7.6860     3.4220 h1         1 0CB       0.059950
     60 H23          0.0220    -8.7550     4.7810 h1         1 0CB       0.059950
     61 H24          0.0190   -12.3570     4.6740 hc         1 0CB       0.052700
     62 H25          0.1590   -10.8480     5.6710 hc         1 0CB       0.052700
     63 H26          0.7500   -10.8690     3.9530 hc         1 0CB       0.052700
     64 H27         -2.3310   -12.3980     4.8230 hn         1 0CB       0.386400
     65 H28         -2.3760    -8.4720     1.9860 h1         1 0CB       0.059950
     66 H29         -3.1290   -10.1020     2.3120 h1         1 0CB       0.059950
     67 H30         -4.5610    -8.1490     3.0100 hc         1 0CB       0.062700
     68 H31         -4.1620    -9.2430     4.4050 hc         1 0CB       0.062700
     69 H263         4.8480     1.1280     1.1860 hn         1 0CB       0.452133
@<TRIPOS>BOND
     1     1     2 ar  
     2     1     9 ar  
     3     1    39 1   
     4     2    19 ar  
     5     2    40 1   
     6     3     8 ar  
     7     3    19 ar  
     8     3    41 1   
     9     4     5 ar  
    10     4     9 ar  
    11     4    42 1   
    12     5     6 ar  
    13     5    43 1   
    14     6     7 ar  
    15     6    18 1   
    16     7     8 ar  
    17     7    44 1   
    18     8     9 ar  
    19    10    11 2   
    20    11    12 2   
    21    11    13 1   
    22    11    17 1   
    23    13    14 1   
    24    13    45 1   
    25    13    46 1   
    26    14    15 1   
    27    14    16 1   
    28    17    18 1   
    29    17    22 1   
    30    18    47 1   
    31    18    48 1   
    32    19    38 1   
    33    20    38 1   
    34    20    49 1   
    35    20    50 1   
    36    20    69 1   
    37    21    38 2   
    38    21    51 1   
    39    22    23 ar  
    40    22    27 ar  
    41    23    24 ar  
    42    23    52 1   
    43    24    25 ar  
    44    24    53 1   
    45    25    26 ar  
    46    25    28 1   
    47    26    27 ar  
    48    26    54 1   
    49    27    55 1   
    50    28    29 1   
    51    29    30 1   
    52    29    37 1   
    53    29    56 1   
    54    30    31 1   
    55    30    57 1   
    56    30    58 1   
    57    31    32 1   
    58    31    59 1   
    59    31    60 1   
    60    32    33 1   
    61    32    36 1   
    62    33    34 1   
    63    33    35 2   
    64    34    61 1   
    65    34    62 1   
    66    34    63 1   
    67    35    64 1   
    68    36    37 1   
    69    36    65 1   
    70    36    66 1   
    71    37    67 1   
    72    37    68 1   
@<TRIPOS>SUBSTRUCTURE
     1 0CB         1 TEMP              0 ****  ****    0 ROOT
