@<TRIPOS>MOLECULE
0CE
   62    68     1     0     0
SMALL
bcc


@<TRIPOS>ATOM
      1 C1          -0.0400    -0.4920    -0.0620 cp         1 0CE      -0.016000
      2 N1           3.8120     0.5740     4.9640 nc         1 0CE      -0.503800
      3 O1          -0.9010    -1.1510     4.6120 o          1 0CE      -0.500100
      4 C2           1.3970    -0.2130    -0.0170 ca         1 0CE      -0.007200
      5 N2           2.9650    -0.1720     5.7050 na         1 0CE       0.081400
      6 O2          -3.9660    -1.1480    -3.3800 os         1 0CE      -0.419600
      7 C3           2.0420    -0.0340     1.2050 ca         1 0CE      -0.080300
      8 N3          -2.3240    -1.2250     2.7040 nc         1 0CE      -0.607100
      9 C4           1.3330    -0.3280     2.4240 ca         1 0CE       0.132000
     10 N4           1.8900    -0.0110    -1.3530 na         1 0CE      -0.043300
     11 C5           2.0680    -0.1890     3.6470 cd         1 0CE      -0.258300
     12 C6           3.3050     0.5840     3.7070 cd         1 0CE       0.327600
     13 C7           1.8880    -0.6580     4.9580 cc         1 0CE      -0.071300
     14 C8           3.1500    -0.4140     7.1150 c3         1 0CE       0.039600
     15 C9           3.8160     1.2600     2.5000 c3         1 0CE      -0.102700
     16 C10          3.4480     0.4600     1.2600 c3         1 0CE      -0.035100
     17 C11         -0.0000    -0.6860     2.3570 ca         1 0CE      -0.213600
     18 C12         -0.6980    -0.7290     1.1050 ca         1 0CE      -0.166900
     19 C13         -2.1150    -1.0560     1.4280 cd         1 0CE       0.514800
     20 C14         -1.0390    -1.0280     3.3970 c          1 0CE       0.697100
     21 C15          3.0850    -0.7130    -1.8420 c3         1 0CE       0.028000
     22 C16          4.3510     0.1450    -1.8120 c3         1 0CE      -0.111600
     23 C17          3.3610    -2.0590    -1.1760 c3         1 0CE      -0.111600
     24 C18          0.7430    -0.1240    -2.2080 ca         1 0CE      -0.025200
     25 C19         -0.4480    -0.4020    -1.4520 cp         1 0CE      -0.085000
     26 C20         -1.6790    -0.4960    -2.0810 ca         1 0CE      -0.048000
     27 C21         -1.7450    -0.3160    -3.4690 ca         1 0CE      -0.102300
     28 C22         -3.0530    -0.4020    -4.1970 c3         1 0CE       0.188400
     29 C23         -3.6100     0.9910    -4.4950 c3         1 0CE      -0.105400
     30 C24         -4.9740     0.8870    -5.1460 c3         1 0CE      -0.078400
     31 C25         -5.8960     0.0270    -4.3060 c3         1 0CE      -0.113400
     32 C26         -5.2410    -1.3070    -3.9920 c3         1 0CE       0.130400
     33 C27         -0.5850    -0.0410    -4.2030 ca         1 0CE      -0.100000
     34 C28          0.6650     0.0620    -3.5890 ca         1 0CE      -0.143000
     35 H7           1.1010    -1.2750     5.4000 h4         1 0CE       0.208000
     36 H8           2.3020    -1.0480     7.4840 h1         1 0CE       0.060033
     37 H8A          4.1230    -0.9470     7.2900 h1         1 0CE       0.060033
     38 H8B          3.1620     0.5590     7.6750 h1         1 0CE       0.060033
     39 H9           3.3610     2.2870     2.4440 hc         1 0CE       0.064700
     40 H9A          4.9300     1.3860     2.5390 hc         1 0CE       0.064700
     41 H10          4.1400    -0.4250     1.1880 hc         1 0CE       0.060200
     42 H10A         3.6390     1.1250     0.3730 hc         1 0CE       0.060200
     43 H13         -2.9020    -1.1470     0.6670 h4         1 0CE       0.052800
     44 H15          2.8880    -0.9320    -2.9410 h1         1 0CE       0.058700
     45 H16          4.1240     1.2290    -1.9440 hc         1 0CE       0.047867
     46 H16A         5.0150    -0.1810    -2.6500 hc         1 0CE       0.047867
     47 H16B         4.9120     0.0050    -0.8580 hc         1 0CE       0.047867
     48 H17          4.2910    -2.4940    -1.6140 hc         1 0CE       0.047867
     49 H17A         3.5030    -1.9470    -0.0750 hc         1 0CE       0.047867
     50 H17B         2.5170    -2.7680    -1.3530 hc         1 0CE       0.047867
     51 H20         -2.5960    -0.7110    -1.5110 ha         1 0CE       0.154000
     52 H22         -2.9090    -0.9630    -5.1670 h1         1 0CE       0.043700
     53 H23         -3.6910     1.5680    -3.5380 hc         1 0CE       0.055700
     54 H23A        -2.8980     1.5330    -5.1680 hc         1 0CE       0.055700
     55 H24         -5.4140     1.9110    -5.2670 hc         1 0CE       0.043700
     56 H24A        -4.8710     0.4410    -6.1690 hc         1 0CE       0.043700
     57 H25         -6.8590    -0.1510    -4.8480 hc         1 0CE       0.052200
     58 H25A        -6.1330     0.5590    -3.3470 hc         1 0CE       0.052200
     59 H26         -5.1330    -1.9200    -4.9270 h1         1 0CE       0.048200
     60 H26A        -5.8320    -1.8810    -3.2290 h1         1 0CE       0.048200
     61 H27         -0.6560     0.1030    -5.2920 ha         1 0CE       0.134000
     62 H28          1.5560     0.2940    -4.1880 ha         1 0CE       0.142000
@<TRIPOS>BOND
     1     1     4 ar  
     2     1    18 ar  
     3     1    25 1   
     4     2     5 1   
     5     2    12 2   
     6     3    20 2   
     7     4     7 ar  
     8     4    10 1   
     9     5    13 1   
    10     5    14 1   
    11     6    28 1   
    12     6    32 1   
    13     7     9 ar  
    14     7    16 1   
    15     8    19 2   
    16     8    20 1   
    17     9    11 1   
    18     9    17 ar  
    19    10    21 1   
    20    10    24 1   
    21    11    12 1   
    22    11    13 2   
    23    12    15 1   
    24    13    35 1   
    25    14    36 1   
    26    14    37 1   
    27    14    38 1   
    28    15    16 1   
    29    15    39 1   
    30    15    40 1   
    31    16    41 1   
    32    16    42 1   
    33    17    18 ar  
    34    17    20 1   
    35    18    19 1   
    36    19    43 1   
    37    21    22 1   
    38    21    23 1   
    39    21    44 1   
    40    22    45 1   
    41    22    46 1   
    42    22    47 1   
    43    23    48 1   
    44    23    49 1   
    45    23    50 1   
    46    24    25 ar  
    47    24    34 ar  
    48    25    26 ar  
    49    26    27 ar  
    50    26    51 1   
    51    27    28 1   
    52    27    33 ar  
    53    28    29 1   
    54    28    52 1   
    55    29    30 1   
    56    29    53 1   
    57    29    54 1   
    58    30    31 1   
    59    30    55 1   
    60    30    56 1   
    61    31    32 1   
    62    31    57 1   
    63    31    58 1   
    64    32    59 1   
    65    32    60 1   
    66    33    34 ar  
    67    33    61 1   
    68    34    62 1   
@<TRIPOS>SUBSTRUCTURE
     1 0CE         1 TEMP              0 ****  ****    0 ROOT
