@<TRIPOS>MOLECULE
molecule
   62    68     1     0     0
SMALL
bcc


@<TRIPOS>ATOM
      1 C1           0.0000     0.0000     0.0000 cp         1 0CE      -0.034000
      2 N1           4.0490     0.3730     4.8150 nc         1 0CE      -0.508800
      3 O1          -0.8130     0.0280     4.6830 o          1 0CE      -0.500100
      4 C2           1.4190     0.0000     0.0000 ca         1 0CE       0.026800
      5 N2           2.9940     0.0670     5.6890 na         1 0CE       0.060400
      6 O2          -2.9320     0.7570    -5.2960 os         1 0CE      -0.421600
      7 C3           2.1160     0.0000     1.1960 ca         1 0CE      -0.104300
      8 N3          -2.2220    -0.0080     2.8870 nc         1 0CE      -0.654100
      9 C4           1.4070     0.0300     2.4120 ca         1 0CE       0.134000
     10 N4           1.8550    -0.0000    -1.3160 na         1 0CE      -0.080300
     11 C5           2.2020     0.0950     3.6560 cd         1 0CE      -0.304300
     12 C6           3.5920     0.4020     3.6060 cd         1 0CE       0.352600
     13 C7           1.8680    -0.0960     4.9610 cc         1 0CE      -0.056300
     14 C8           3.0970    -0.0530     7.1450 c3         1 0CE       0.065600
     15 C9           4.2790     0.7080     2.2990 c3         1 0CE      -0.088700
     16 C10          3.6170    -0.0850     1.1760 c3         1 0CE      -0.041100
     17 C11          0.0200     0.0160     2.4270 ca         1 0CE      -0.240600
     18 C12         -0.6970    -0.0010     1.2120 ca         1 0CE      -0.183900
     19 C13         -2.1170    -0.0180     1.5860 cd         1 0CE       0.572800
     20 C14         -1.0160     0.0130     3.4850 c          1 0CE       0.729100
     21 C15          3.2590    -0.0020    -1.7340 c3         1 0CE       0.059000
     22 C16          3.9020    -1.3380    -1.3580 c3         1 0CE      -0.117600
     23 C17          3.3410     0.1960    -3.2490 c3         1 0CE      -0.117600
     24 C18          0.7820    -0.0010    -2.1710 ca         1 0CE       0.023800
     25 C19         -0.4060    -0.0030    -1.4020 cp         1 0CE      -0.108000
     26 C20         -1.6660    -0.0050    -2.0050 ca         1 0CE      -0.060000
     27 C21         -1.6960    -0.0090    -3.3890 ca         1 0CE      -0.116300
     28 C22         -3.0270    -0.0120    -4.0950 c3         1 0CE       0.196400
     29 C23         -3.4190    -1.4510    -4.4410 c3         1 0CE      -0.107400
     30 C24         -4.7430    -1.4400    -5.2110 c3         1 0CE      -0.082400
     31 C25         -4.5900    -0.5630    -6.4570 c3         1 0CE      -0.119400
     32 C26         -4.1530     0.8410    -6.0320 c3         1 0CE       0.139400
     33 C27         -0.5350    -0.0120    -4.1430 ca         1 0CE      -0.065000
     34 C28          0.7230    -0.0010    -3.5620 ca         1 0CE      -0.187000
     35 H7           0.8840    -0.3390     5.3440 h4         1 0CE       0.218000
     36 H8           2.7730    -1.0410     7.4490 h1         1 0CE       0.055700
     37 H8A          2.4680     0.6940     7.6150 h1         1 0CE       0.055700
     38 H8B          4.1260     0.0980     7.4480 h1         1 0CE       0.055700
     39 H9           4.1950     1.7670     2.0890 hc         1 0CE       0.061700
     40 H9A          5.3230     0.4300     2.3690 hc         1 0CE       0.061700
     41 H10          3.9730     0.2970     0.2260 hc         1 0CE       0.058700
     42 H10A         3.9060    -1.1250     1.2690 hc         1 0CE       0.058700
     43 H13         -2.8430     0.5110     0.9800 h4         1 0CE       0.055800
     44 H15          3.7850     0.8040    -1.2360 h1         1 0CE       0.067700
     45 H16          3.2580    -1.8680    -0.6670 hc         1 0CE       0.053200
     46 H16A         4.0420    -1.9360    -2.2510 hc         1 0CE       0.053200
     47 H16B         4.8630    -1.1580    -0.8910 hc         1 0CE       0.053200
     48 H17          2.9800    -0.6940    -3.7500 hc         1 0CE       0.053200
     49 H17A         2.7310     1.0440    -3.5360 hc         1 0CE       0.053200
     50 H17B         4.3700     0.3780    -3.5340 hc         1 0CE       0.053200
     51 H20         -2.5350     0.3190    -1.4450 ha         1 0CE       0.137000
     52 H22         -3.7830     0.4200    -3.4500 h1         1 0CE       0.039700
     53 H23         -2.6470    -1.8970    -5.0570 hc         1 0CE       0.055200
     54 H23A        -3.5360    -2.0230    -3.5290 hc         1 0CE       0.055200
     55 H24         -4.9960    -2.4510    -5.5100 hc         1 0CE       0.044200
     56 H24A        -5.5250    -1.0370    -4.5790 hc         1 0CE       0.044200
     57 H25         -3.8390    -0.9920    -7.1110 hc         1 0CE       0.050700
     58 H25A        -5.5390    -0.5040    -6.9760 hc         1 0CE       0.050700
     59 H26         -4.9210     1.2830    -5.4080 h1         1 0CE       0.046700
     60 H26A        -4.0010     1.4530    -6.9130 h1         1 0CE       0.046700
     61 H27         -0.6120    -0.0150    -5.2230 ha         1 0CE       0.147000
     62 H28          1.6230    -0.0030    -4.1650 ha         1 0CE       0.159000
@<TRIPOS>BOND
     1     1     4 ar
     2     1    18 ar
     3     1    25 1
     4     2     5 1
     5     2    12 2
     6     3    20 2
     7     4     7 ar
     8     4    10 1
     9     5    13 1
    10     5    14 1
    11     6    28 1
    12     6    32 1
    13     7     9 ar
    14     7    16 1
    15     8    19 2
    16     8    20 1
    17     9    11 1
    18     9    17 ar
    19    10    21 1
    20    10    24 1
    21    11    12 1
    22    11    13 2
    23    12    15 1
    24    13    35 1
    25    14    36 1
    26    14    37 1
    27    14    38 1
    28    15    16 1
    29    15    39 1
    30    15    40 1
    31    16    41 1
    32    16    42 1
    33    17    18 ar
    34    17    20 1
    35    18    19 1
    36    19    43 1
    37    21    22 1
    38    21    23 1
    39    21    44 1
    40    22    45 1
    41    22    46 1
    42    22    47 1
    43    23    48 1
    44    23    49 1
    45    23    50 1
    46    24    25 ar
    47    24    34 ar
    48    25    26 ar
    49    26    27 ar
    50    26    51 1
    51    27    28 1
    52    27    33 ar
    53    28    29 1
    54    28    52 1
    55    29    30 1
    56    29    53 1
    57    29    54 1
    58    30    31 1
    59    30    55 1
    60    30    56 1
    61    31    32 1
    62    31    57 1
    63    31    58 1
    64    32    59 1
    65    32    60 1
    66    33    34 ar
    67    33    61 1
    68    34    62 1
@<TRIPOS>SUBSTRUCTURE
     1 0CE         1 TEMP              0 ****  ****    0 ROOT
