@<TRIPOS>MOLECULE
0CG
   15    14     1     0     0
SMALL
bcc


@<TRIPOS>ATOM
      1 O20          0.1760    -0.3740     0.2970 o          1 0CG      -0.958167
      2 P17          1.6270    -0.0610     0.5350 p5         1 0CG       1.459900
      3 O18          2.1050    -0.3650     1.9270 o          1 0CG      -0.958167
      4 O19          2.5740    -0.5060    -0.5550 o          1 0CG      -0.958167
      5 O16          1.7730     1.6870     0.3540 os         1 0CG      -0.821800
      6 P13          1.9980     3.2100     0.0560 p5         1 0CG       1.570800
      7 O14          1.3200     3.7040    -1.1750 o          1 0CG      -0.919500
      8 O15          1.9490     4.0970     1.2540 o          1 0CG      -0.919500
      9 O29          3.6500     3.2360    -0.3430 os         1 0CG      -0.585200
     10 C28          4.1890     2.1000    -0.9160 c3         1 0CG       0.194500
     11 C27          4.7890     2.3640    -2.2180 c1         1 0CG       0.020900
     12 C30          5.3290     2.5370    -3.2770 c1         1 0CG      -0.403500
     13 H4           5.0410     1.7330    -0.2600 h1         1 0CG       0.087200
     14 H5           3.4170     1.2460    -0.9870 h1         1 0CG       0.087200
     15 H6           5.7600     2.6850    -4.2260 ha         1 0CG       0.103500
@<TRIPOS>BOND
     1     1     2 1   
     2     2     3 1   
     3     2     4 1   
     4     2     5 1   
     5     5     6 1   
     6     6     7 1   
     7     6     8 1   
     8     6     9 1   
     9     9    10 1   
    10    10    11 1   
    11    10    13 1   
    12    10    14 1   
    13    11    12 3   
    14    12    15 1   
@<TRIPOS>SUBSTRUCTURE
     1 0CG         1 TEMP              0 ****  ****    0 ROOT
