@<TRIPOS>MOLECULE
0CG
   15    14     1     0     0
SMALL
bcc


@<TRIPOS>ATOM
      1 O20          0.0000     0.0000     0.0000 o          1 0CG      -0.785833
      2 P17          1.4800     0.0000     0.0000 p5         1 0CG       0.745900
      3 O18          2.0160     0.0000     1.5180 o          1 0CG      -0.785833
      4 O19          2.0160    -1.3140    -0.7590 o          1 0CG      -0.785833
      5 O16          2.0170     1.3140    -0.7590 os         1 0CG      -0.443800
      6 P13          1.5550     2.1120    -2.0780 p5         1 0CG       0.879800
      7 O14          1.1630     1.1440    -3.1270 o          1 0CG      -0.706500
      8 O15          0.2980     3.0540    -1.7230 o          1 0CG      -0.706500
      9 O29          2.7720     3.0190    -2.6120 os         1 0CG      -0.471200
     10 C28          2.7110     3.7680    -3.8280 c3         1 0CG       0.411500
     11 C27          3.9800     4.4850    -4.0270 c1         1 0CG      -0.057100
     12 C30          5.0030     5.0400    -4.1890 c1         1 0CG      -0.364500
     13 H4           2.0370     4.5660    -3.5400 h1         1 0CG      -0.019800
     14 H5           2.6950     3.3750    -4.8370 h1         1 0CG      -0.019800
     15 H6           6.0000     5.4490    -4.2980 ha         1 0CG       0.109500
@<TRIPOS>BOND
     1     1     2 1   
     2     2     3 1   
     3     2     4 1   
     4     2     5 1   
     5     5     6 1   
     6     6     7 1   
     7     6     8 1   
     8     6     9 1   
     9     9    10 1   
    10    10    11 1   
    11    10    13 1   
    12    10    14 1   
    13    11    12 3   
    14    12    15 1   
@<TRIPOS>SUBSTRUCTURE
     1 0CG         1 TEMP              0 ****  ****    0 ROOT
