@<TRIPOS>MOLECULE
0CH
   23    22     1     0     0
SMALL
bcc


@<TRIPOS>ATOM
      1 O20         -0.0540    -0.5510     0.9550 o          1 0CH      -0.964500
      2 P17          1.4170    -0.3250     0.7480 p5         1 0CH       1.473900
      3 O19          2.3170    -1.0000     1.7620 o          1 0CH      -0.964500
      4 O18          1.8040     1.1010     0.4700 o          1 0CH      -0.964500
      5 O16          1.8100    -1.2160    -0.7200 os         1 0CH      -0.817800
      6 P13          2.2650    -2.0350    -1.9740 p5         1 0CH       1.576800
      7 O15          2.2970    -1.2760    -3.2570 o          1 0CH      -0.925500
      8 O14          1.7200    -3.4250    -2.0350 o          1 0CH      -0.925500
      9 O29          3.9140    -2.2770    -1.6450 os         1 0CH      -0.583200
     10 C28          4.2490    -3.3480    -0.8430 c3         1 0CH       0.219400
     11 C27          4.6070    -2.9530     0.5910 c3         1 0CH      -0.136400
     12 C30          5.5860    -1.8040     0.6560 c3         1 0CH      -0.081400
     13 C13          5.4480    -1.0560     1.9720 c3         1 0CH       0.088400
     14 O33          6.0770     0.2230     1.9000 oh         1 0CH      -0.679800
     15 H4           3.4040    -4.0960    -0.8140 h1         1 0CH      -0.019800
     16 H5           5.1540    -3.8570    -1.3020 h1         1 0CH      -0.019800
     17 H6           5.0290    -3.8490     1.1170 hc         1 0CH       0.052700
     18 H7           3.6550    -2.6400     1.1210 hc         1 0CH       0.052700
     19 H8           6.6400    -2.1630     0.5180 hc         1 0CH       0.024700
     20 H9           5.3520    -1.0980    -0.1870 hc         1 0CH       0.024700
     21 H10          5.9890    -1.5870     2.7990 h1         1 0CH       0.074200
     22 H11          4.3430    -0.9380     2.2200 h1         1 0CH       0.074200
     23 H12          5.4650     0.7760     1.3980 ho         1 0CH       0.420000
@<TRIPOS>BOND
     1     1     2 1   
     2     2     3 1   
     3     2     4 1   
     4     2     5 1   
     5     5     6 1   
     6     6     7 1   
     7     6     8 1   
     8     6     9 1   
     9     9    10 1   
    10    10    11 1   
    11    10    15 1   
    12    10    16 1   
    13    11    12 1   
    14    11    17 1   
    15    11    18 1   
    16    12    13 1   
    17    12    19 1   
    18    12    20 1   
    19    13    14 1   
    20    13    21 1   
    21    13    22 1   
    22    14    23 1   
@<TRIPOS>SUBSTRUCTURE
     1 0CH         1 TEMP              0 ****  ****    0 ROOT
