@<TRIPOS>MOLECULE
0CH
   23    22     1     0     0
SMALL
bcc


@<TRIPOS>ATOM
      1 O20          0.0000     0.0000     0.0000 o          1 0CH      -0.788500
      2 P17          1.4800     0.0000     0.0000 p5         1 0CH       0.745900
      3 O19          2.0170     0.0000     1.5190 o          1 0CH      -0.788500
      4 O18          2.0170    -1.3150    -0.7590 o          1 0CH      -0.788500
      5 O16          2.0170     1.3150    -0.7590 os         1 0CH      -0.447800
      6 P13          1.5530     2.1110    -2.0780 p5         1 0CH       0.884800
      7 O15          0.2970     3.0540    -1.7240 o          1 0CH      -0.711000
      8 O14          1.1620     1.1430    -3.1280 o          1 0CH      -0.711000
      9 O29          2.7720     3.0190    -2.6130 os         1 0CH      -0.495200
     10 C28          2.7100     3.7680    -3.8280 c3         1 0CH       0.307400
     11 C27          4.0280     4.5140    -4.0360 c3         1 0CH      -0.058400
     12 C30          3.9630     5.3150    -5.3380 c3         1 0CH      -0.037400
     13 C13          5.2820     6.0620    -5.5460 c3         1 0CH       0.215400
     14 O33          5.2200     6.8100    -6.7610 oh         1 0CH      -0.607800
     15 H4           2.5410     3.0940    -4.6600 h1         1 0CH      -0.034300
     16 H5           1.8970     4.4810    -3.7720 h1         1 0CH      -0.034300
     17 H6           4.1960     5.1890    -3.2060 hc         1 0CH       0.003700
     18 H7           4.8420     3.8010    -4.0920 hc         1 0CH       0.003700
     19 H8           3.1490     6.0280    -5.2830 hc         1 0CH       0.013700
     20 H9           3.7960     4.6400    -6.1690 hc         1 0CH       0.013700
     21 H10          6.0950     5.3490    -5.6010 h1         1 0CH      -0.022800
     22 H11          5.4490     6.7360    -4.7150 h1         1 0CH      -0.022800
     23 H12          6.0330     7.2700    -6.8890 ho         1 0CH       0.360000
@<TRIPOS>BOND
     1     1     2 1   
     2     2     3 1   
     3     2     4 1   
     4     2     5 1   
     5     5     6 1   
     6     6     7 1   
     7     6     8 1   
     8     6     9 1   
     9     9    10 1   
    10    10    11 1   
    11    10    15 1   
    12    10    16 1   
    13    11    12 1   
    14    11    17 1   
    15    11    18 1   
    16    12    13 1   
    17    12    19 1   
    18    12    20 1   
    19    13    14 1   
    20    13    21 1   
    21    13    22 1   
    22    14    23 1   
@<TRIPOS>SUBSTRUCTURE
     1 0CH         1 TEMP              0 ****  ****    0 ROOT
