@<TRIPOS>MOLECULE
0CJ
   24    23     1     0     0
SMALL
bcc


@<TRIPOS>ATOM
      1 O25          2.3800     1.6370     0.6860 o          1 0CJ      -0.693100
      2 C13          1.8990     0.6370     0.1090 c          1 0CJ       0.605100
      3 C22          0.8230    -0.1830     0.7290 c3         1 0CJ      -0.258100
      4 C30          2.3220     0.2160    -1.2610 c3         1 0CJ      -0.189400
      5 C27          2.8450    -1.2020    -1.2960 c3         1 0CJ      -0.094400
      6 C28          3.3980    -1.5780    -2.6750 c3         1 0CJ       0.219400
      7 O29          2.6530    -1.0880    -3.7220 os         1 0CJ      -0.577200
      8 P13          1.6840    -2.1900    -4.5800 p5         1 0CJ       1.574800
      9 O15          1.5940    -1.5610    -5.9270 o          1 0CJ      -0.922500
     10 O14          2.4520    -3.4680    -4.4870 o          1 0CJ      -0.922500
     11 O16          0.3700    -2.1690    -3.7290 os         1 0CJ      -0.816800
     12 P17         -1.0580    -1.9900    -2.7180 p5         1 0CJ       1.476900
     13 O20         -1.1490    -3.2750    -1.9440 o          1 0CJ      -0.962833
     14 O18         -2.1960    -1.7410    -3.6650 o          1 0CJ      -0.962833
     15 O19         -0.6690    -0.8030    -1.8590 o          1 0CJ      -0.962833
     16 H1           1.2250    -1.1870     1.0050 hc         1 0CJ       0.085033
     17 H2           0.0160    -0.3640    -0.0660 hc         1 0CJ       0.085033
     18 H3           0.3960     0.3080     1.6330 hc         1 0CJ       0.085033
     19 H4           3.0810     0.9250    -1.6760 hc         1 0CJ       0.104700
     20 H5           1.3930     0.2310    -1.9250 hc         1 0CJ       0.104700
     21 H6           2.0030    -1.8990    -1.0400 hc         1 0CJ       0.022700
     22 H7           3.6590    -1.3380    -0.5350 hc         1 0CJ       0.022700
     23 H8           4.4430    -1.1410    -2.7520 h1         1 0CJ      -0.012300
     24 H9           3.4810    -2.7020    -2.7390 h1         1 0CJ      -0.012300
@<TRIPOS>BOND
     1     1     2 2   
     2     2     3 1   
     3     2     4 1   
     4     3    16 1   
     5     3    17 1   
     6     3    18 1   
     7     4     5 1   
     8     4    19 1   
     9     4    20 1   
    10     5     6 1   
    11     5    21 1   
    12     5    22 1   
    13     6     7 1   
    14     6    23 1   
    15     6    24 1   
    16     7     8 1   
    17     8     9 1   
    18     8    10 1   
    19     8    11 1   
    20    11    12 1   
    21    12    13 1   
    22    12    14 1   
    23    12    15 1   
@<TRIPOS>SUBSTRUCTURE
     1 0CJ         1 TEMP              0 ****  ****    0 ROOT
