@<TRIPOS>MOLECULE
molecule
   24    23     1     0     0
SMALL
bcc


@<TRIPOS>ATOM
      1 O25          0.0000     0.0000     0.0000 o          1 0CJ      -0.529100
      2 C13          1.2070     0.0000     0.0000 c          1 0CJ       0.556100
      3 C22          1.9610     0.0000     1.3040 c3         1 0CJ      -0.205100
      4 C30          1.9600    -0.0040    -1.3050 c3         1 0CJ      -0.180400
      5 C27          0.9660    -0.0100    -2.4680 c3         1 0CJ      -0.086400
      6 C28          1.7300    -0.0150    -3.7930 c3         1 0CJ       0.234400
      7 O29          0.8020    -0.0190    -4.8790 os         1 0CJ      -0.593200
      8 P13          1.2570    -0.0260    -6.4240 p5         1 0CJ       1.417800
      9 O15          2.0240     1.3490    -6.7620 o          1 0CJ      -0.864000
     10 O14          2.1650    -1.1690    -6.6650 o          1 0CJ      -0.864000
     11 O16         -0.0410    -0.1620    -7.3660 os         1 0CJ      -0.708800
     12 P17         -0.2720    -0.6230    -8.8910 p5         1 0CJ       1.296900
     13 O20          0.5060    -1.8540    -9.1590 o          1 0CJ      -0.948167
     14 O18         -1.8370    -0.9160    -9.1320 o          1 0CJ      -0.948167
     15 O19          0.2150     0.5460    -9.8850 o          1 0CJ      -0.948167
     16 H1           2.5920     0.8790     1.3570 hc         1 0CJ       0.044033
     17 H2           1.2570     0.0110     2.1280 hc         1 0CJ       0.044033
     18 H3           2.5760    -0.8900     1.3660 hc         1 0CJ       0.044033
     19 H4           2.5820     0.8810    -1.3670 hc         1 0CJ       0.057200
     20 H5           2.5840    -0.8880    -1.3600 hc         1 0CJ       0.057200
     21 H6           0.3440    -0.8950    -2.4070 hc         1 0CJ       0.052700
     22 H7           0.3420     0.8740    -2.4140 hc         1 0CJ       0.052700
     23 H8           2.3520     0.8700    -3.8540 h1         1 0CJ       0.010200
     24 H9           2.3530    -0.8990    -3.8480 h1         1 0CJ       0.010200
@<TRIPOS>BOND
     1    13    12 1
     2    10     8 1
     3     9     8 1
     4    12    11 1
     5    12    15 1
     6    12    14 1
     7    11     8 1
     8     8     7 1
     9     7     6 1
    10     1     2 2
    11     5     6 1
    12     5     4 1
    13     2     4 1
    14     2     3 1
    15     3    16 1
    16     3    17 1
    17     3    18 1
    18     4    19 1
    19     4    20 1
    20     5    21 1
    21     5    22 1
    22     6    23 1
    23     6    24 1
@<TRIPOS>SUBSTRUCTURE
     1 0CJ         1 TEMP              0 ****  ****    0 ROOT
