@<TRIPOS>MOLECULE
molecule
   45    48     1     0     0
SMALL
bcc


@<TRIPOS>ATOM
      1 C7           0.0000     0.0000     0.0000 cc         1 0CK      -0.299100
      2 N2           1.3780     0.0000     0.0000 na         1 0CK      -0.166900
      3 C8           1.7810     0.0000     1.2870 cc         1 0CK       0.417400
      4 N3           0.7390    -0.0010     2.0720 nd         1 0CK      -0.695000
      5 C9          -0.3840    -0.0010     1.3310 cd         1 0CK       0.422800
      6 C10         -0.5720     0.7810    -2.3020 ca         1 0CK      -0.453600
      7 C11         -1.4310     0.7490    -3.3830 ca         1 0CK       0.503200
      8 N4          -2.5160    -0.0080    -3.3270 nb         1 0CK      -0.804000
      9 C12         -2.7910    -0.7330    -2.2520 ca         1 0CK       0.949900
     10 N5          -1.9970    -0.7330    -1.1930 nb         1 0CK      -0.782000
     11 C13         -0.8860     0.0050    -1.1780 ca         1 0CK       0.595800
     12 C14          3.0570     1.2970    -1.2170 c3         1 0CK      -0.092400
     13 C15          2.2460     0.0010    -1.1810 c3         1 0CK       0.040000
     14 C16          3.1980    -1.1950    -1.1150 c3         1 0CK      -0.092400
     15 C17          4.1030    -1.1940    -2.3480 c3         1 0CK      -0.078400
     16 C18          4.9140     0.1020    -2.3840 c3         1 0CK      -0.084400
     17 C19          3.9630     1.2990    -2.4500 c3         1 0CK      -0.078400
     18 C1          -4.0650     0.6880     1.6390 ca         1 0CK      -0.175000
     19 C2          -4.3720    -0.0010     2.8010 ca         1 0CK       0.129900
     20 C3          -3.3840    -0.6910     3.4850 ca         1 0CK      -0.175000
     21 C4          -2.0890    -0.6940     3.0110 ca         1 0CK      -0.073500
     22 C5          -1.7740    -0.0020     1.8420 ca         1 0CK      -0.109500
     23 C6          -2.7710     0.6920     1.1580 ca         1 0CK      -0.073500
     24 H1           2.8120     0.0000     1.6190 h5         1 0CK       0.067100
     25 H2           0.3230     1.3920    -2.3220 ha         1 0CK       0.145000
     26 H3          -1.2180     1.3360    -4.2680 h4         1 0CK       0.028100
     27 H4          -4.6140    -1.4150    -2.9680 hn         1 0CK       0.452800
     28 H5          -4.0630    -2.1990    -1.5230 hn         1 0CK       0.452800
     29 H6           3.6660     1.3650    -0.3230 hc         1 0CK       0.054450
     30 H7           2.3820     2.1430    -1.2660 hc         1 0CK       0.054450
     31 H8           1.6420    -0.0690    -2.0780 h1         1 0CK       0.085700
     32 H9           2.6220    -2.1130    -1.0930 hc         1 0CK       0.054450
     33 H10          3.8060    -1.1230    -0.2220 hc         1 0CK       0.054450
     34 H11          3.4940    -1.2620    -3.2410 hc         1 0CK       0.048450
     35 H12          4.7780    -2.0400    -2.2990 hc         1 0CK       0.048450
     36 H13          5.5200     0.1720    -1.4890 hc         1 0CK       0.046700
     37 H14          5.5530     0.1020    -3.2590 hc         1 0CK       0.046700
     38 H15          3.3550     1.2260    -3.3440 hc         1 0CK       0.048450
     39 H16          4.5390     2.2160    -2.4720 hc         1 0CK       0.048450
     40 H17         -4.8410     1.2260     1.1080 ha         1 0CK       0.142500
     41 H18         -3.6290    -1.2290     4.3930 ha         1 0CK       0.142500
     42 H19         -1.3170    -1.2330     3.5470 ha         1 0CK       0.143500
     43 H20         -2.5320     1.2310     0.2500 ha         1 0CK       0.143500
     44 N1          -3.9360    -1.5090    -2.2370 nv         1 0CK      -0.987500
     45 F1          -5.6390    -0.0010     3.2690 f          1 0CK      -0.146900
@<TRIPOS>BOND
     1    44     9 1   
     2     8     9 ar  
     3     8     7 ar  
     4     9    10 ar  
     5     7     6 ar  
     6    10    11 ar  
     7    15    14 1   
     8    15    16 1   
     9     6    11 ar  
    10    11     1 1   
    11    14    13 1   
    12    18    23 ar  
    13    18    19 ar  
    14    16    17 1   
    15    23    22 ar  
    16     1     2 1   
    17     1     5 2   
    18    13     2 1   
    19    13    12 1   
    20    45    19 1   
    21    17    12 1   
    22    19    20 ar  
    23     2     3 1   
    24    22     5 1   
    25    22    21 ar  
    26     5     4 1   
    27     3     4 2   
    28    20    21 ar  
    29     3    24 1   
    30     6    25 1   
    31     7    26 1   
    32    44    27 1   
    33    44    28 1   
    34    12    29 1   
    35    12    30 1   
    36    13    31 1   
    37    14    32 1   
    38    14    33 1   
    39    15    34 1   
    40    15    35 1   
    41    16    36 1   
    42    16    37 1   
    43    17    38 1   
    44    17    39 1   
    45    18    40 1   
    46    20    41 1   
    47    21    42 1   
    48    23    43 1   
@<TRIPOS>SUBSTRUCTURE
     1 0CK         1 TEMP              0 ****  ****    0 ROOT
