@<TRIPOS>MOLECULE
0CK
   45    48     1     0     0
SMALL
bcc


@<TRIPOS>ATOM
      1 C7          -0.0050    -0.1520    -0.0190 cc         1 0CK      -0.266100
      2 N2           1.3960    -0.2050    -0.0140 na         1 0CK      -0.171900
      3 C8           1.7820    -0.3320     1.3250 cc         1 0CK       0.401400
      4 N3           0.7210    -0.3640     2.1580 nd         1 0CK      -0.662000
      5 C9          -0.4110    -0.2590     1.3410 cd         1 0CK       0.377800
      6 C10         -1.7930     1.0390    -1.2440 ca         1 0CK      -0.394600
      7 C11         -2.5900     1.1330    -2.3990 ca         1 0CK       0.462200
      8 N4          -2.4740     0.3090    -3.4480 nb         1 0CK      -0.743000
      9 C12         -1.4870    -0.6710    -3.3500 ca         1 0CK       0.859900
     10 N5          -0.6680    -0.8620    -2.2440 nb         1 0CK      -0.753000
     11 C13         -0.8360     0.0010    -1.2140 ca         1 0CK       0.552800
     12 C14          3.4850     0.8040    -0.9010 c3         1 0CK      -0.089400
     13 C15          2.2880    -0.1330    -1.1530 c3         1 0CK       0.051000
     14 C16          2.8100    -1.5170    -1.5810 c3         1 0CK      -0.089400
     15 C17          3.6550    -1.3890    -2.8300 c3         1 0CK      -0.076900
     16 C18          4.8090    -0.4300    -2.6290 c3         1 0CK      -0.082400
     17 C19          4.3180     0.9240    -2.1600 c3         1 0CK      -0.076900
     18 C1          -4.0690    -1.0330     1.6930 ca         1 0CK      -0.171500
     19 C2          -4.3680    -0.3630     2.8940 ca         1 0CK       0.124900
     20 C3          -3.3610     0.3370     3.5830 ca         1 0CK      -0.171500
     21 C4          -2.0700     0.3670     3.0680 ca         1 0CK      -0.086000
     22 C5          -1.7650    -0.2880     1.8660 ca         1 0CK      -0.122500
     23 C6          -2.7730    -0.9930     1.1920 ca         1 0CK      -0.086000
     24 H1           2.8320    -0.3950     1.6330 h5         1 0CK       0.064100
     25 H2          -1.9150     1.7260    -0.4000 ha         1 0CK       0.168000
     26 H3          -3.3710     1.9110    -2.4890 h4         1 0CK       0.031100
     27 H4          -0.7720    -2.3310    -4.3080 hn         1 0CK       0.425800
     28 H5          -1.9930    -1.5180    -5.1390 hn         1 0CK       0.425800
     29 H6           3.1200     1.8190    -0.5950 hc         1 0CK       0.053950
     30 H7           4.1180     0.4000    -0.0690 hc         1 0CK       0.053950
     31 H8           1.6940     0.2980    -2.0150 h1         1 0CK       0.081700
     32 H9           3.4180    -1.9640    -0.7520 hc         1 0CK       0.053950
     33 H10          1.9440    -2.2010    -1.7820 hc         1 0CK       0.053950
     34 H11          4.0520    -2.4010    -3.1080 hc         1 0CK       0.046950
     35 H12          3.0160    -1.0340    -3.6810 hc         1 0CK       0.046950
     36 H13          5.5210    -0.8530    -1.8730 hc         1 0CK       0.043700
     37 H14          5.3720    -0.3120    -3.5920 hc         1 0CK       0.043700
     38 H15          3.7090     1.4040    -2.9710 hc         1 0CK       0.046950
     39 H16          5.1940     1.5930    -1.9570 hc         1 0CK       0.046950
     40 H17         -4.8590    -1.5850     1.1660 ha         1 0CK       0.147500
     41 H18         -3.6020     0.8510     4.5250 ha         1 0CK       0.147500
     42 H19         -1.2790     0.9060     3.6140 ha         1 0CK       0.147500
     43 H20         -2.5330    -1.5230     0.2570 ha         1 0CK       0.147500
     44 N1          -1.2590    -1.4800    -4.4700 nv         1 0CK      -0.922500
     45 F1          -5.6290    -0.3950     3.3890 f          1 0CK      -0.142900
@<TRIPOS>BOND
     1     1     2 1   
     2     1     5 2   
     3     1    11 1   
     4     2     3 1   
     5     2    13 1   
     6     3     4 2   
     7     3    24 1   
     8     4     5 1   
     9     5    22 1   
    10     6     7 ar  
    11     6    11 ar  
    12     6    25 1   
    13     7     8 ar  
    14     7    26 1   
    15     8     9 ar  
    16     9    10 ar  
    17     9    44 1   
    18    10    11 ar  
    19    12    13 1   
    20    12    17 1   
    21    12    29 1   
    22    12    30 1   
    23    13    14 1   
    24    13    31 1   
    25    14    15 1   
    26    14    32 1   
    27    14    33 1   
    28    15    16 1   
    29    15    34 1   
    30    15    35 1   
    31    16    17 1   
    32    16    36 1   
    33    16    37 1   
    34    17    38 1   
    35    17    39 1   
    36    18    19 ar  
    37    18    23 ar  
    38    18    40 1   
    39    19    20 ar  
    40    19    45 1   
    41    20    21 ar  
    42    20    41 1   
    43    21    22 ar  
    44    21    42 1   
    45    22    23 ar  
    46    23    43 1   
    47    27    44 1   
    48    28    44 1   
@<TRIPOS>SUBSTRUCTURE
     1 0CK         1 TEMP              0 ****  ****    0 ROOT
