@<TRIPOS>MOLECULE
molecule
   11    10     1     0     0
SMALL
bcc


@<TRIPOS>ATOM
      1 Cl1          0.0000     0.0000     0.0000 cl         1 0CL      -0.195400
      2 C2           1.8030     0.0000     0.0000 c3         1 0CL       0.048000
      3 C3           2.3120     0.0000     1.4430 c3         1 0CL      -0.105400
      4 C4           3.8420    -0.0000     1.4420 c3         1 0CL       0.048000
      5 Cl5          4.4430     0.0000     3.1420 cl         1 0CL      -0.195400
      6 H2           2.1640     0.8850    -0.5110 h1         1 0CL       0.064700
      7 H2A          2.1640    -0.8850    -0.5110 h1         1 0CL       0.064700
      8 H3           1.9510     0.8850     1.9540 hc         1 0CL       0.070700
      9 H3A          1.9510    -0.8850     1.9540 hc         1 0CL       0.070700
     10 H4           4.2030     0.8850     0.9320 h1         1 0CL       0.064700
     11 H4A          4.2030    -0.8850     0.9320 h1         1 0CL       0.064700
@<TRIPOS>BOND
     1     2     1 1
     2     3     2 1
     3     2     6 1
     4     2     7 1
     5     4     3 1
     6     3     8 1
     7     3     9 1
     8     4     5 1
     9     4    10 1
    10     4    11 1
@<TRIPOS>SUBSTRUCTURE
     1 0CL         1 TEMP              0 ****  ****    0 ROOT
