@<TRIPOS>MOLECULE
0CL
   11    10     1     0     0
SMALL
bcc


@<TRIPOS>ATOM
      1 Cl1          0.0260     0.0090    -0.0090 cl         1 0CL      -0.192400
      2 C2           1.7760    -0.1270     0.0200 c3         1 0CL       0.033500
      3 C3           2.3180     0.0660     1.4170 c3         1 0CL      -0.101400
      4 C4           3.8270     0.0180     1.4390 c3         1 0CL       0.033500
      5 Cl5          4.4580    -1.5900     1.1240 cl         1 0CL      -0.192400
      6 H2           2.0260    -1.1420    -0.3720 h1         1 0CL       0.070200
      7 H2A          2.1670     0.6530    -0.6760 h1         1 0CL       0.070200
      8 H3           1.8960    -0.7180     2.1020 hc         1 0CL       0.069700
      9 H3A          1.9940     1.0660     1.8150 hc         1 0CL       0.069700
     10 H4           4.2100     0.3120     2.4460 h1         1 0CL       0.070200
     11 H4A          4.2640     0.6880     0.6590 h1         1 0CL       0.070200
@<TRIPOS>BOND
     1     1     2 1   
     2     2     3 1   
     3     2     6 1   
     4     2     7 1   
     5     3     4 1   
     6     3     8 1   
     7     3     9 1   
     8     4     5 1   
     9     4    10 1   
    10     4    11 1   
@<TRIPOS>SUBSTRUCTURE
     1 0CL         1 TEMP              0 ****  ****    0 ROOT
