@<TRIPOS>MOLECULE
0CM
   18    17     1     0     0
SMALL
bcc


@<TRIPOS>ATOM
      1 O12          0.0080    -0.4840     0.7490 o          1 0CM      -0.957167
      2 P8           1.4630    -0.1410     0.9080 p5         1 0CM       1.459900
      3 O13          1.9810    -0.2780     2.3120 o          1 0CM      -0.957167
      4 O9           2.3830    -0.7040    -0.1500 o          1 0CM      -0.957167
      5 O7           1.5940     1.5740     0.5180 os         1 0CM      -0.821800
      6 P6           1.8030     3.0510     0.0350 p5         1 0CM       1.570800
      7 O10          1.0870     3.3940    -1.2260 o          1 0CM      -0.919000
      8 O11          1.7880     4.0740     1.1200 o          1 0CM      -0.919000
      9 O5           3.4420     3.0270    -0.4160 os         1 0CM      -0.584200
     10 C4           3.9670     1.8310    -0.8640 c3         1 0CM       0.192500
     11 C3           4.5300     1.9360    -2.2030 c1         1 0CM       0.051900
     12 C2           5.0450     1.9790    -3.2890 c1         1 0CM      -0.389100
     13 C1           5.6040     2.0220    -4.5940 c3         1 0CM       0.064000
     14 H4           4.8380     1.5420    -0.1940 h1         1 0CM       0.091700
     15 H5           3.1940     0.9740    -0.8120 h1         1 0CM       0.091700
     16 H6           5.0750     2.7770    -5.2340 hc         1 0CM      -0.005967
     17 H7           5.5240     1.0250    -5.1040 hc         1 0CM      -0.005967
     18 H8           6.6910     2.3020    -4.5660 hc         1 0CM      -0.005967
@<TRIPOS>BOND
     1     1     2 1   
     2     2     3 1   
     3     2     4 1   
     4     2     5 1   
     5     5     6 1   
     6     6     7 1   
     7     6     8 1   
     8     6     9 1   
     9     9    10 1   
    10    10    11 1   
    11    10    14 1   
    12    10    15 1   
    13    11    12 3   
    14    12    13 1   
    15    13    16 1   
    16    13    17 1   
    17    13    18 1   
@<TRIPOS>SUBSTRUCTURE
     1 0CM         1 TEMP              0 ****  ****    0 ROOT
