@<TRIPOS>MOLECULE
molecule
   18    17     1     0     0
SMALL
bcc


@<TRIPOS>ATOM
      1 O12          0.0000     0.0000     0.0000 o          1 0CM      -0.948167
      2 P8           1.6100     0.0000     0.0000 p5         1 0CM       1.296900
      3 O13          2.1040     0.0000     1.3940 o          1 0CM      -0.948167
      4 O9           2.1460    -1.3150    -0.7590 o          1 0CM      -0.948167
      5 O7           2.1470     1.3130    -0.7600 os         1 0CM      -0.706800
      6 P6           3.5750     2.0540    -0.8410 p5         1 0CM       1.413800
      7 O10          4.2140     2.0420     0.4940 o          1 0CM      -0.859500
      8 O11          4.5170     1.2840    -1.8950 o          1 0CM      -0.859500
      9 O5           3.3630     3.5760    -1.3210 os         1 0CM      -0.595200
     10 C4           4.4300     4.5250    -1.3920 c3         1 0CM       0.257500
     11 C3           3.9070     5.8170    -1.8660 c1         1 0CM      -0.038100
     12 C2           3.4720     6.8380    -2.2480 c1         1 0CM      -0.313100
     13 C1           2.5780     8.3530    -2.6560 c3         1 0CM       0.024000
     14 H4           4.7680     4.1850    -2.3640 h1         1 0CM       0.056200
     15 H5           5.1590     4.3600    -0.6080 h1         1 0CM       0.056200
     16 H6           1.6010     8.2420    -3.1110 hc         1 0CM       0.037033
     17 H7           3.0170     8.9100    -1.8370 hc         1 0CM       0.037033
     18 H8           3.1450     8.7290    -3.4990 hc         1 0CM       0.037033
@<TRIPOS>BOND
     1    10    11 1   
     2    10     9 1   
     3    11    12 3   
     4    12    13 1   
     5     9     6 1   
     6     3     2 1   
     7     4     2 1   
     8     6     5 1   
     9     6     7 1   
    10     6     8 1   
    11     5     2 1   
    12     2     1 1   
    13    10    14 1   
    14    10    15 1   
    15    13    16 1   
    16    13    17 1   
    17    13    18 1   
@<TRIPOS>SUBSTRUCTURE
     1 0CM         1 TEMP              0 ****  ****    0 ROOT
