@<TRIPOS>MOLECULE
molecule
   18    17     1     0     0
SMALL
bcc


@<TRIPOS>ATOM
      1 O15          0.0000     0.0000     0.0000 o          1 0CN      -0.845000
      2 P13          1.6100     0.0000     0.0000 p5         1 0CN       1.397800
      3 O14          2.1030     0.0000     1.3950 o          1 0CN      -0.845000
      4 O16          2.1470     1.3150    -0.7580 os         1 0CN      -0.706800
      5 P17          2.3300     2.8560    -0.3310 p5         1 0CN       1.304900
      6 O19          1.1750     3.2810     0.4920 o          1 0CN      -0.924167
      7 O18          3.6850     3.0190     0.5220 o          1 0CN      -0.924167
      8 O20          2.4130     3.7730    -1.6520 o          1 0CN      -0.924167
      9 O29          2.1480    -1.3140    -0.7590 os         1 0CN      -0.506200
     10 C28          1.9300    -2.6390    -0.2700 c3         1 0CN       0.246600
     11 C27          2.5590    -3.6320    -1.2130 c2         1 0CN      -0.420300
     12 C30          3.4230    -4.5040    -0.7630 c1         1 0CN      -0.076800
     13 C13          4.2960    -5.3760    -0.3350 c2         1 0CN      -0.408100
     14 H4           1.8720    -3.5610    -0.8360 h1         1 0CN       0.143200
     15 H5           2.6890    -2.8650     0.4690 h1         1 0CN       0.143200
     16 H6           2.5590    -3.6980    -2.2940 ha         1 0CN       0.146000
     17 H10          4.4290    -5.1340     0.7120 ha         1 0CN       0.099500
     18 H11          4.9980    -5.9830    -0.8950 ha         1 0CN       0.099500
@<TRIPOS>BOND
     1     6     5 1   
     2     3     2 1   
     3     1     2 1   
     4     5     4 1   
     5     5     8 1   
     6     5     7 1   
     7     4     2 1   
     8     2     9 1   
     9     9    10 1   
    10    13    12 2   
    11    12    11 2   
    12    10    11 1   
    13    10    14 1   
    14    10    15 1   
    15    11    16 1   
    16    13    17 1   
    17    13    18 1   
@<TRIPOS>SUBSTRUCTURE
     1 0CN         1 TEMP              0 ****  ****    0 ROOT
