@<TRIPOS>MOLECULE
0CN
   18    17     1     0     0
SMALL
bcc


@<TRIPOS>ATOM
      1 O15         -0.3770    -1.4260    -0.8460 o          1 0CN      -0.921000
      2 P13          0.7290    -0.5620    -0.3510 p5         1 0CN       1.573800
      3 O14          0.7560    -0.2610     1.1110 o          1 0CN      -0.921000
      4 O16          1.1170     0.6540    -1.2600 os         1 0CN      -0.820800
      5 P17          1.6300     1.9780    -2.2890 p5         1 0CN       1.473900
      6 O19          1.0750     3.2120    -1.6360 o          1 0CN      -0.949833
      7 O18          1.0660     1.6790    -3.6470 o          1 0CN      -0.949833
      8 O20          3.1390     1.8500    -2.2070 o          1 0CN      -0.949833
      9 O29          2.1170    -1.5250    -0.5490 os         1 0CN      -0.574200
     10 C28          3.2560    -1.0710     0.0830 c3         1 0CN       0.250600
     11 C27          4.2640    -0.4940    -0.8740 c2         1 0CN      -0.197300
     12 C30          5.5100    -0.8590    -0.9230 c1         1 0CN      -0.061800
     13 C13          6.7660    -1.2060    -0.9910 c2         1 0CN      -0.383100
     14 H4           2.9960    -0.2610     0.8300 h1         1 0CN       0.001200
     15 H5           3.7200    -1.9390     0.6430 h1         1 0CN       0.001200
     16 H6           3.8290     0.3600    -1.5330 ha         1 0CN       0.315000
     17 H10          7.1320    -1.9780    -1.6790 ha         1 0CN       0.056500
     18 H11          7.5460    -0.7330    -0.3810 ha         1 0CN       0.056500
@<TRIPOS>BOND
     1     1     2 1   
     2     2     3 1   
     3     2     4 1   
     4     2     9 1   
     5     4     5 1   
     6     5     6 1   
     7     5     7 1   
     8     5     8 1   
     9     9    10 1   
    10    10    11 1   
    11    10    14 1   
    12    10    15 1   
    13    11    12 2   
    14    11    16 1   
    15    12    13 2   
    16    13    17 1   
    17    13    18 1   
@<TRIPOS>SUBSTRUCTURE
     1 0CN         1 TEMP              0 ****  ****    0 ROOT
