@<TRIPOS>MOLECULE
0CN
   18    18     1     0     0
SMALL
bcc


@<TRIPOS>ATOM
      1 O15          0.0000     0.0000     0.0000 o          1 0CN      -0.677000
      2 P13          1.6100     0.0000     0.0000 p5         1 0CN       1.303000
      3 O14          2.1030     0.0000     1.3950 o          1 0CN      -0.677000
      4 O16          2.1470     1.3150    -0.7580 os         1 0CN      -0.899000
      5 P17          2.3300     2.8560    -0.3310 p5         1 0CN       0.970500
      6 O19          1.1750     3.2810     0.4920 o          1 0CN      -0.772833
      7 O18          3.6850     3.0190     0.5220 o          1 0CN      -0.772833
      8 O20          2.4130     3.7730    -1.6520 o          1 0CN      -0.772833
      9 O29          2.1480    -1.3140    -0.7590 os         1 0CN      -0.483000
     10 C28          1.9300    -2.6390    -0.2700 c3         1 0CN       0.277000
     11 C27          2.5590    -3.6320    -1.2130 c3         1 0CN       0.101000
     12 C30          3.4230    -4.5040    -0.7630 c1         1 0CN      -0.777000
     13 C13          4.2700    -5.3870    -0.3050 c2         1 0CN      -0.068000
     14 H4           1.1610    -2.9490     0.4270 h1         1 0CN       0.087000
     15 H5           1.7390    -3.5280    -0.8600 DU         1 0CN       0.055000
     16 H6           2.7400    -3.5410    -2.2770 hc         1 0CN       0.067000
     17 H10          4.3170    -5.6510     0.7450 ha         1 0CN       0.018500
     18 H11          4.6380    -5.9070    -1.1810 ha         1 0CN       0.018500
@<TRIPOS>BOND
     1     1     2 1   
     2     2     3 1   
     3     2     4 1   
     4     2     9 1   
     5     4     5 1   
     6     5     6 1   
     7     5     7 1   
     8     5     8 1   
     9     9    10 1   
    10    10    11 1   
    11    10    14 1   
    12    10    15 1   
    13    11    12 1   
    14    11    15 1   
    15    11    16 1   
    16    12    13 1   
    17    13    17 1   
    18    13    18 1   
@<TRIPOS>SUBSTRUCTURE
     1 0CN         1 TEMP              0 ****  ****    0 ROOT
