@<TRIPOS>MOLECULE
0CO
   76    79     1     0     0
SMALL
bcc


@<TRIPOS>ATOM
      1 C5          -0.4100    -0.5800     0.6750 ce         1 0CO      -0.070200
      2 C4           0.0340     0.7230     0.1040 c3         1 0CO      -0.037200
      3 C3           1.0500     1.4800     0.9550 c3         1 0CO       0.147100
      4 C2           2.1390     0.5680     1.5030 c3         1 0CO      -0.106400
      5 C1           1.5160    -0.6050     2.2540 c3         1 0CO       0.181300
      6 C10          0.6160    -1.3900     1.3400 ce         1 0CO      -0.108200
      7 C6          -1.6800    -1.0180     0.5830 cf         1 0CO      -0.117000
      8 C7          -2.7990    -0.3100    -0.0070 cf         1 0CO      -0.151000
      9 C8          -2.9460     0.0210    -1.2980 c2         1 0CO      -0.078400
     10 C14         -4.1250     0.7410    -1.8420 c3         1 0CO      -0.040500
     11 C13         -4.7830    -0.0790    -2.9870 c3         1 0CO      -0.027000
     12 C12         -3.7700    -0.1700    -4.1190 c3         1 0CO      -0.066400
     13 C11         -2.4780    -0.8120    -3.6460 c3         1 0CO      -0.071400
     14 C9          -1.9190    -0.2400    -2.3540 c3         1 0CO      -0.047200
     15 C15         -5.2960     1.1440    -0.9560 c3         1 0CO      -0.072400
     16 C16         -6.4670     1.3350    -1.9260 c3         1 0CO      -0.078400
     17 C17         -6.0160     0.7990    -3.2960 c3         1 0CO      -0.055700
     18 C19          0.7310    -2.7080     1.1470 c2         1 0CO      -0.211000
     19 O3           0.3250     2.1300     1.9940 oh         1 0CO      -0.597800
     20 O1           2.5950    -1.3670     2.7790 oh         1 0CO      -0.597800
     21 C20         -7.1640     0.2210    -4.1310 c3         1 0CO       0.165800
     22 C22         -8.0970    -0.7770    -3.4260 c3         1 0CO      -0.100400
     23 C23         -8.2240    -1.9870    -4.3580 c3         1 0CO      -0.088700
     24 C28         -7.2920    -1.6720    -5.5340 c3         1 0CO       0.128400
     25 O21         -6.5770    -0.4690    -5.2560 os         1 0CO      -0.421600
     26 C24         -9.6630    -2.2150    -4.7760 c3         1 0CO      -0.066400
     27 C25         -9.9730    -3.6270    -5.2870 c3         1 0CO       0.149800
     28 C26         -9.1350    -4.0050    -6.5000 c3         1 0CO      -0.123100
     29 O25        -11.3530    -3.5540    -5.6690 oh         1 0CO      -0.602800
     30 C27         -9.8120    -4.6760    -4.1910 c3         1 0CO      -0.123100
     31 C18         -5.1730    -1.4670    -2.5170 c3         1 0CO      -0.082100
     32 C21         -7.9890     1.3830    -4.6900 c3         1 0CO      -0.110100
     33 H4          -0.8590     1.3870    -0.0600 hc         1 0CO       0.065200
     34 H4A          0.5030     0.5270    -0.8990 hc         1 0CO       0.065200
     35 H3           1.5340     2.2750     0.3150 h1         1 0CO       0.033700
     36 H2           2.8090     1.1340     2.1990 hc         1 0CO       0.061700
     37 H2A          2.7670     0.1830     0.6600 hc         1 0CO       0.061700
     38 H1           0.8910    -0.2070     3.1080 h1         1 0CO       0.053700
     39 H6          -1.9520    -1.9940     1.0280 ha         1 0CO       0.126000
     40 H7          -3.6000    -0.0680     0.7170 ha         1 0CO       0.131000
     41 H14         -3.7210     1.6950    -2.2990 hc         1 0CO       0.055700
     42 H12         -4.2070    -0.7690    -4.9610 hc         1 0CO       0.050700
     43 H12A        -3.5570     0.8580    -4.5130 hc         1 0CO       0.050700
     44 H11         -2.6410    -1.9150    -3.5150 hc         1 0CO       0.038700
     45 H11A        -1.7030    -0.6930    -4.4490 hc         1 0CO       0.038700
     46 H9          -1.1320    -0.9380    -1.9580 hc         1 0CO       0.047700
     47 H9A         -1.4080     0.7390    -2.5750 hc         1 0CO       0.047700
     48 H15         -5.0750     2.0840    -0.3940 hc         1 0CO       0.045200
     49 H15A        -5.5330     0.3470    -0.2090 hc         1 0CO       0.045200
     50 H16         -7.3710     0.7940    -1.5530 hc         1 0CO       0.042200
     51 H16A        -6.7370     2.4170    -2.0120 hc         1 0CO       0.042200
     52 H17         -5.6220     1.6720    -3.8960 hc         1 0CO       0.055700
     53 H19          0.0570    -3.2620     0.4810 ha         1 0CO       0.118000
     54 H19A         1.5160    -3.3080     1.6270 ha         1 0CO       0.118000
     55 HO3          0.9770     2.5120     2.5930 ho         1 0CO       0.398000
     56 HO1          2.2050    -2.0760     3.3030 ho         1 0CO       0.403000
     57 H22         -9.0920    -0.3030    -3.2320 hc         1 0CO       0.058700
     58 H22A        -7.6830    -1.0970    -2.4390 hc         1 0CO       0.058700
     59 H23         -7.8460    -2.9010    -3.8260 hc         1 0CO       0.058700
     60 H28         -7.8580    -1.5210    -6.4900 h1         1 0CO       0.044700
     61 H28A        -6.5120    -2.4650    -5.6780 h1         1 0CO       0.044700
     62 H24         -9.9500    -1.4810    -5.5750 hc         1 0CO       0.059200
     63 H24A       -10.3380    -2.0270    -3.8980 hc         1 0CO       0.059200
     64 H26         -9.4460    -5.0050    -6.8860 hc         1 0CO       0.043200
     65 H26A        -9.2750    -3.2510    -7.3110 hc         1 0CO       0.043200
     66 H26B        -8.0550    -4.0480    -6.2240 hc         1 0CO       0.043200
     67 HO25       -11.5970    -4.4240    -6.0040 ho         1 0CO       0.399000
     68 H27        -10.3920    -4.3760    -3.2860 hc         1 0CO       0.043200
     69 H27A       -10.1970    -5.6620    -4.5480 hc         1 0CO       0.043200
     70 H27B        -8.7390    -4.7940    -3.9150 hc         1 0CO       0.043200
     71 H18         -4.2690    -2.0500    -2.2150 hc         1 0CO       0.036367
     72 H18A        -5.6950    -2.0100    -3.3430 hc         1 0CO       0.036367
     73 H18B        -5.8490    -1.4070    -1.6300 hc         1 0CO       0.036367
     74 H21         -8.8590     0.9890    -5.2680 hc         1 0CO       0.042700
     75 H21A        -8.3590     2.0210    -3.8530 hc         1 0CO       0.042700
     76 H21B        -7.3630     2.0020    -5.3760 hc         1 0CO       0.042700
@<TRIPOS>BOND
     1     1     2 1   
     2     1     6 1   
     3     1     7 2   
     4     2     3 1   
     5     2    33 1   
     6     2    34 1   
     7     3     4 1   
     8     3    19 1   
     9     3    35 1   
    10     4     5 1   
    11     4    36 1   
    12     4    37 1   
    13     5     6 1   
    14     5    20 1   
    15     5    38 1   
    16     6    18 2   
    17     7     8 1   
    18     7    39 1   
    19     8     9 2   
    20     8    40 1   
    21     9    10 1   
    22     9    14 1   
    23    10    11 1   
    24    10    15 1   
    25    10    41 1   
    26    11    12 1   
    27    11    17 1   
    28    11    31 1   
    29    12    13 1   
    30    12    42 1   
    31    12    43 1   
    32    13    14 1   
    33    13    44 1   
    34    13    45 1   
    35    14    46 1   
    36    14    47 1   
    37    15    16 1   
    38    15    48 1   
    39    15    49 1   
    40    16    17 1   
    41    16    50 1   
    42    16    51 1   
    43    17    21 1   
    44    17    52 1   
    45    18    53 1   
    46    18    54 1   
    47    19    55 1   
    48    20    56 1   
    49    21    22 1   
    50    21    25 1   
    51    21    32 1   
    52    22    23 1   
    53    22    57 1   
    54    22    58 1   
    55    23    24 1   
    56    23    26 1   
    57    23    59 1   
    58    24    25 1   
    59    24    60 1   
    60    24    61 1   
    61    26    27 1   
    62    26    62 1   
    63    26    63 1   
    64    27    28 1   
    65    27    29 1   
    66    27    30 1   
    67    28    64 1   
    68    28    65 1   
    69    28    66 1   
    70    29    67 1   
    71    30    68 1   
    72    30    69 1   
    73    30    70 1   
    74    31    71 1   
    75    31    72 1   
    76    31    73 1   
    77    32    74 1   
    78    32    75 1   
    79    32    76 1   
@<TRIPOS>SUBSTRUCTURE
     1 0CO         1 TEMP              0 ****  ****    0 ROOT
