@<TRIPOS>MOLECULE
0CO
   76    79     1     0     0
SMALL
bcc


@<TRIPOS>ATOM
      1 C5           0.0000     0.0000     0.0000 ce         1 0CO      -0.085200
      2 C4           1.5150     0.0000     0.0000 c3         1 0CO       0.020800
      3 C3           1.9980     0.0000     1.4540 c3         1 0CO       0.193100
      4 C2           1.4320     1.2160     2.1880 c3         1 0CO      -0.073400
      5 C1          -0.0900     1.0910     2.3030 c3         1 0CO       0.247300
      6 C10         -0.6660     0.9600     0.9070 ce         1 0CO      -0.082200
      7 C6          -0.7080    -0.8300    -0.7930 cf         1 0CO      -0.096000
      8 C7          -2.1720    -0.8000    -0.7640 cf         1 0CO      -0.160000
      9 C8          -2.8710    -1.6210    -1.5470 c2         1 0CO      -0.096400
     10 C14         -4.3710    -1.6350    -1.5620 c3         1 0CO      -0.004500
     11 C13         -4.7770    -3.0900    -1.1910 c3         1 0CO      -0.056000
     12 C12         -4.3270    -3.9910    -2.3170 c3         1 0CO      -0.022400
     13 C11         -2.7890    -4.0100    -2.3100 c3         1 0CO      -0.030400
     14 C9          -2.2040    -2.6070    -2.4970 c3         1 0CO       0.016800
     15 C15         -5.0760    -0.8380    -0.4610 c3         1 0CO      -0.027400
     16 C16         -6.4640    -1.5330    -0.3710 c3         1 0CO      -0.028400
     17 C17         -6.2670    -2.9730    -0.9100 c3         1 0CO      -0.035700
     18 C19         -1.7200     1.6740     0.5150 c2         1 0CO      -0.163000
     19 O3           3.4260     0.0520     1.4800 oh         1 0CO      -0.590800
     20 O1          -0.4210    -0.0680     3.0710 oh         1 0CO      -0.578800
     21 C20         -6.6900    -3.9980     0.1450 c3         1 0CO       0.163800
     22 C22         -8.2100    -3.9040     0.3860 c3         1 0CO      -0.062400
     23 C23         -8.3340    -3.5890     1.8970 c3         1 0CO      -0.086700
     24 C28         -6.9650    -4.0700     2.4430 c3         1 0CO       0.186400
     25 O21         -6.0400    -3.7110     1.3940 os         1 0CO      -0.383600
     26 C24         -9.4810    -4.3820     2.5280 c3         1 0CO      -0.017400
     27 C25         -9.6540    -3.9560     3.9860 c3         1 0CO       0.163800
     28 C26        -10.8020    -4.7490     4.6160 c3         1 0CO      -0.034600
     29 O25         -8.4470    -4.2140     4.7050 oh         1 0CO      -0.589800
     30 C27         -9.9750    -2.4620     4.0460 c3         1 0CO      -0.034600
     31 C18         -4.0620    -3.4980     0.0990 c3         1 0CO      -0.075100
     32 C21         -6.3250    -5.4080    -0.3240 c3         1 0CO      -0.049100
     33 H4           1.8790     0.8870    -0.5040 hc         1 0CO       0.025200
     34 H4A          1.8790    -0.8870    -0.5040 hc         1 0CO       0.025200
     35 H3           1.6580    -0.9040     1.9440 h1         1 0CO       0.018700
     36 H2           1.8640     1.2700     3.1800 hc         1 0CO       0.026700
     37 H2A          1.6770     2.1150     1.6350 hc         1 0CO       0.026700
     38 H1          -0.4920     1.9770     2.7790 h1         1 0CO       0.000700
     39 H6          -0.1930    -1.5200    -1.4520 ha         1 0CO       0.115000
     40 H7          -2.6870    -0.0860    -0.1320 ha         1 0CO       0.140000
     41 H14         -4.7530    -1.3670    -2.5400 hc         1 0CO       0.039700
     42 H12         -4.7070    -4.9930    -2.1570 hc         1 0CO       0.019700
     43 H12A        -4.6850    -3.6030    -3.2630 hc         1 0CO       0.019700
     44 H11         -2.4470    -4.4110    -1.3640 hc         1 0CO       0.018200
     45 H11A        -2.4420    -4.6460    -3.1150 hc         1 0CO       0.018200
     46 H9          -1.1400    -2.6340    -2.2930 hc         1 0CO       0.021200
     47 H9A         -2.3690    -2.2850    -3.5180 hc         1 0CO       0.021200
     48 H15         -5.1860     0.1990    -0.7520 hc         1 0CO       0.024200
     49 H15A        -4.5420    -0.9280     0.4770 hc         1 0CO       0.024200
     50 H16         -6.7960    -1.5650     0.6600 hc         1 0CO       0.020700
     51 H16A        -7.1840    -1.0030    -0.9830 hc         1 0CO       0.020700
     52 H17         -6.8320    -3.1110    -1.8240 hc         1 0CO       0.033700
     53 H19         -2.1870     2.3710     1.2000 ha         1 0CO       0.096000
     54 H19A        -2.1090     1.5600    -0.4900 ha         1 0CO       0.096000
     55 HO3          3.7560    -0.6490     2.0170 ho         1 0CO       0.388000
     56 HO1         -0.6060     0.1870     3.9600 ho         1 0CO       0.386000
     57 H22         -8.6370    -3.1010    -0.2030 hc         1 0CO       0.027700
     58 H22A        -8.6880    -4.8480     0.1560 hc         1 0CO       0.027700
     59 H23         -8.4570    -2.5250     2.0580 hc         1 0CO       0.045700
     60 H28         -6.9710    -5.1420     2.5940 h1         1 0CO       0.024700
     61 H28A        -6.7180    -3.5500     3.3610 h1         1 0CO       0.024700
     62 H24         -9.2540    -5.4410     2.4850 hc         1 0CO       0.025200
     63 H24A       -10.3970    -4.1870     1.9830 hc         1 0CO       0.025200
     64 H26        -11.7140    -4.5670     4.0620 hc         1 0CO       0.012700
     65 H26A       -10.9350    -4.4360     5.6450 hc         1 0CO       0.012700
     66 H26B       -10.5680    -5.8070     4.5890 hc         1 0CO       0.012700
     67 HO25        -8.6430    -4.3210     5.6210 ho         1 0CO       0.392000
     68 H27         -9.0530    -1.8940     4.0470 hc         1 0CO       0.012700
     69 H27A       -10.5320    -2.2480     4.9510 hc         1 0CO       0.012700
     70 H27B       -10.5690    -2.1850     3.1830 hc         1 0CO       0.012700
     71 H18         -4.4660    -2.9330     0.9300 hc         1 0CO       0.038700
     72 H18A        -4.2120    -4.5560     0.2760 hc         1 0CO       0.038700
     73 H18B        -3.0020    -3.2940     0.0050 hc         1 0CO       0.038700
     74 H21         -7.0150    -6.1220     0.1090 hc         1 0CO       0.021033
     75 H21A        -5.3160    -5.6430    -0.0080 hc         1 0CO       0.021033
     76 H21B        -6.3860    -5.4560    -1.4040 hc         1 0CO       0.021033
@<TRIPOS>BOND
     1     1     2 1   
     2     1     6 1   
     3     1     7 2   
     4     2     3 1   
     5     2    33 1   
     6     2    34 1   
     7     3     4 1   
     8     3    19 1   
     9     3    35 1   
    10     4     5 1   
    11     4    36 1   
    12     4    37 1   
    13     5     6 1   
    14     5    20 1   
    15     5    38 1   
    16     6    18 2   
    17     7     8 1   
    18     7    39 1   
    19     8     9 2   
    20     8    40 1   
    21     9    10 1   
    22     9    14 1   
    23    10    11 1   
    24    10    15 1   
    25    10    41 1   
    26    11    12 1   
    27    11    17 1   
    28    11    31 1   
    29    12    13 1   
    30    12    42 1   
    31    12    43 1   
    32    13    14 1   
    33    13    44 1   
    34    13    45 1   
    35    14    46 1   
    36    14    47 1   
    37    15    16 1   
    38    15    48 1   
    39    15    49 1   
    40    16    17 1   
    41    16    50 1   
    42    16    51 1   
    43    17    21 1   
    44    17    52 1   
    45    18    53 1   
    46    18    54 1   
    47    19    55 1   
    48    20    56 1   
    49    21    22 1   
    50    21    25 1   
    51    21    32 1   
    52    22    23 1   
    53    22    57 1   
    54    22    58 1   
    55    23    24 1   
    56    23    26 1   
    57    23    59 1   
    58    24    25 1   
    59    24    60 1   
    60    24    61 1   
    61    26    27 1   
    62    26    62 1   
    63    26    63 1   
    64    27    28 1   
    65    27    29 1   
    66    27    30 1   
    67    28    64 1   
    68    28    65 1   
    69    28    66 1   
    70    29    67 1   
    71    30    68 1   
    72    30    69 1   
    73    30    70 1   
    74    31    71 1   
    75    31    72 1   
    76    31    73 1   
    77    32    74 1   
    78    32    75 1   
    79    32    76 1   
@<TRIPOS>SUBSTRUCTURE
     1 0CO         1 TEMP              0 ****  ****    0 ROOT
