@<TRIPOS>MOLECULE
molecule
   76    79     1     0     0
SMALL
bcc


@<TRIPOS>ATOM
      1 C5           0.0000     0.0000     0.0000 ce         1 0CO      -0.083200
      2 C4           1.5150     0.0000     0.0000 c3         1 0CO      -0.045200
      3 C3           1.9980     0.0000     1.4540 c3         1 0CO       0.152100
      4 C2           1.4320     1.2160     2.1880 c3         1 0CO      -0.098400
      5 C1          -0.0900     1.0910     2.3030 c3         1 0CO       0.189300
      6 C10         -0.6660     0.9600     0.9070 ce         1 0CO      -0.085200
      7 C6          -0.7080    -0.8300    -0.7930 cf         1 0CO      -0.117000
      8 C7          -2.1720    -0.8000    -0.7640 cf         1 0CO      -0.160000
      9 C8          -2.8710    -1.6210    -1.5470 c2         1 0CO      -0.091400
     10 C14         -4.3710    -1.6350    -1.5620 c3         1 0CO      -0.034500
     11 C13         -4.7770    -3.0900    -1.1910 c3         1 0CO      -0.060000
     12 C12         -4.3270    -3.9910    -2.3170 c3         1 0CO      -0.067400
     13 C11         -2.7890    -4.0100    -2.3100 c3         1 0CO      -0.077400
     14 C9          -2.2040    -2.6070    -2.4970 c3         1 0CO      -0.044200
     15 C15         -5.0760    -0.8380    -0.4610 c3         1 0CO      -0.075400
     16 C16         -6.4640    -1.5330    -0.3710 c3         1 0CO      -0.076400
     17 C17         -6.2670    -2.9730    -0.9100 c3         1 0CO      -0.050700
     18 C19         -1.7200     1.6740     0.5150 c2         1 0CO      -0.209000
     19 O3           3.4260     0.0520     1.4800 oh         1 0CO      -0.611800
     20 O1          -0.4210    -0.0680     3.0710 oh         1 0CO      -0.596800
     21 C20         -6.6900    -3.9980     0.1450 c3         1 0CO       0.145800
     22 C22         -8.2100    -3.9040     0.3860 c3         1 0CO      -0.105400
     23 C23         -8.3340    -3.5890     1.8970 c3         1 0CO      -0.102700
     24 C28         -6.9650    -4.0700     2.4430 c3         1 0CO       0.123400
     25 O21         -6.0400    -3.7110     1.3940 os         1 0CO      -0.401600
     26 C24         -9.4810    -4.3820     2.5280 c3         1 0CO      -0.057400
     27 C25         -9.6540    -3.9560     3.9860 c3         1 0CO       0.146800
     28 C26        -10.8020    -4.7490     4.6160 c3         1 0CO      -0.119600
     29 O25         -8.4470    -4.2140     4.7050 oh         1 0CO      -0.606800
     30 C27         -9.9750    -2.4620     4.0460 c3         1 0CO      -0.119600
     31 C18         -4.0620    -3.4980     0.0990 c3         1 0CO      -0.096100
     32 C21         -6.3250    -5.4080    -0.3240 c3         1 0CO      -0.112100
     33 H4           1.8790     0.8870    -0.5040 hc         1 0CO       0.056700
     34 H4A          1.8790    -0.8870    -0.5040 hc         1 0CO       0.056700
     35 H3           1.6580    -0.9040     1.9440 h1         1 0CO       0.053700
     36 H2           1.6780     2.1150     1.6350 hc         1 0CO       0.056200
     37 H2A          1.8640     1.2690     3.1800 hc         1 0CO       0.056200
     38 H1          -0.4920     1.9770     2.7790 h1         1 0CO       0.036700
     39 H6          -0.1930    -1.5200    -1.4520 ha         1 0CO       0.133000
     40 H7          -2.6860    -0.1540    -0.0630 ha         1 0CO       0.147000
     41 H14         -4.7530    -1.3670    -2.5400 hc         1 0CO       0.061700
     42 H12         -4.7070    -4.9930    -2.1570 hc         1 0CO       0.041700
     43 H12A        -4.6850    -3.6030    -3.2630 hc         1 0CO       0.041700
     44 H11         -2.4460    -4.4110    -1.3640 hc         1 0CO       0.043700
     45 H11A        -2.4420    -4.6460    -3.1160 hc         1 0CO       0.043700
     46 H9          -1.1400    -2.6340    -2.2930 hc         1 0CO       0.047700
     47 H9A         -2.3690    -2.2850    -3.5180 hc         1 0CO       0.047700
     48 H15         -4.5420    -0.9280     0.4770 hc         1 0CO       0.049700
     49 H15A        -5.1860     0.1990    -0.7520 hc         1 0CO       0.049700
     50 H16         -6.7960    -1.5650     0.6600 hc         1 0CO       0.045700
     51 H16A        -7.1840    -1.0030    -0.9830 hc         1 0CO       0.045700
     52 H17         -6.8320    -3.1110    -1.8240 hc         1 0CO       0.054700
     53 H19         -2.1870     2.3710     1.2000 ha         1 0CO       0.121500
     54 H19A        -2.1090     1.5600    -0.4900 ha         1 0CO       0.121500
     55 HO3          3.7630    -0.7490     1.8480 ho         1 0CO       0.401000
     56 HO1         -0.8150     0.1970     3.8850 ho         1 0CO       0.400000
     57 H22         -8.6370    -3.1010    -0.2030 hc         1 0CO       0.051700
     58 H22A        -8.6880    -4.8480     0.1560 hc         1 0CO       0.051700
     59 H23         -8.4570    -2.5250     2.0580 hc         1 0CO       0.064700
     60 H28         -6.7180    -3.5500     3.3610 h1         1 0CO       0.060700
     61 H28A        -6.9710    -5.1420     2.5940 h1         1 0CO       0.060700
     62 H24         -9.2540    -5.4410     2.4850 hc         1 0CO       0.052200
     63 H24A       -10.3970    -4.1870     1.9830 hc         1 0CO       0.052200
     64 H26        -10.7460    -5.7820     4.2960 hc         1 0CO       0.042533
     65 H26A       -11.7480    -4.3250     4.3040 hc         1 0CO       0.042533
     66 H26B       -10.7240    -4.7020     5.6960 hc         1 0CO       0.042533
     67 HO25        -8.6240    -4.2080     5.6310 ho         1 0CO       0.403000
     68 H27        -10.4200    -2.2260     5.0050 hc         1 0CO       0.042533
     69 H27A        -9.0630    -1.8910     3.9210 hc         1 0CO       0.042533
     70 H27B       -10.6700    -2.2100     3.2540 hc         1 0CO       0.042533
     71 H18         -3.0030    -3.2920     0.0060 hc         1 0CO       0.051367
     72 H18A        -4.4680    -2.9340     0.9310 hc         1 0CO       0.051367
     73 H18B        -4.2100    -4.5570     0.2740 hc         1 0CO       0.051367
     74 H21         -7.0060    -6.1240     0.1200 hc         1 0CO       0.043700
     75 H21A        -6.3990    -5.4600    -1.4030 hc         1 0CO       0.043700
     76 H21B        -5.3110    -5.6380    -0.0200 hc         1 0CO       0.043700
@<TRIPOS>BOND
     1     1     2 1
     2     1     6 1
     3     1     7 2
     4     2     3 1
     5     3     4 1
     6     3    19 1
     7     4     5 1
     8     5     6 1
     9     5    20 1
    10     6    18 2
    11     7     8 1
    12     8     9 2
    13     9    10 1
    14     9    14 1
    15    10    11 1
    16    10    15 1
    17    11    12 1
    18    11    17 1
    19    11    31 1
    20    12    13 1
    21    13    14 1
    22    15    16 1
    23    16    17 1
    24    17    21 1
    25    21    22 1
    26    21    25 1
    27    21    32 1
    28    22    23 1
    29    23    24 1
    30    23    26 1
    31    24    25 1
    32    26    27 1
    33    27    28 1
    34    27    29 1
    35    27    30 1
    36     2    33 1
    37     2    34 1
    38     3    35 1
    39     4    36 1
    40     4    37 1
    41     5    38 1
    42     7    39 1
    43     8    40 1
    44    10    41 1
    45    12    42 1
    46    12    43 1
    47    13    44 1
    48    13    45 1
    49    14    46 1
    50    14    47 1
    51    15    48 1
    52    15    49 1
    53    16    50 1
    54    16    51 1
    55    17    52 1
    56    18    53 1
    57    18    54 1
    58    19    55 1
    59    20    56 1
    60    22    57 1
    61    22    58 1
    62    23    59 1
    63    24    60 1
    64    24    61 1
    65    26    62 1
    66    26    63 1
    67    28    64 1
    68    28    65 1
    69    28    66 1
    70    29    67 1
    71    30    68 1
    72    30    69 1
    73    30    70 1
    74    31    71 1
    75    31    72 1
    76    31    73 1
    77    32    74 1
    78    32    75 1
    79    32    76 1
@<TRIPOS>SUBSTRUCTURE
     1 0CO         1 TEMP              0 ****  ****    0 ROOT
