@<TRIPOS>MOLECULE
molecule
   47    50     1     0     0
SMALL
bcc


@<TRIPOS>ATOM
      1 C1           0.0000     0.0000     0.0000 c3         1 0CP       0.126700
      2 N1           4.1440     1.1820     7.1550 ns         1 0CP      -0.602900
      3 O1           1.4290     0.0000     0.0000 os         1 0CP      -0.311900
      4 C2           2.0460     0.0000     1.2120 ca         1 0CP       0.117100
      5 N2           4.1260    -1.1710     7.1640 ns         1 0CP      -0.602900
      6 O2           4.1800    -0.0010     0.1500 os         1 0CP      -0.307900
      7 C3           3.4350    -0.0010     1.2880 ca         1 0CP       0.123100
      8 C4           5.5960     0.1160     0.3000 c3         1 0CP       0.137100
      9 C5           6.2240    -1.2700     0.5730 c3         1 0CP      -0.107400
     10 C6           7.1970    -1.5050    -0.6240 c3         1 0CP      -0.080700
     11 C7           8.3580    -0.4920    -0.3870 c3         1 0CP      -0.084400
     12 C8           7.7300     0.8940    -0.6600 c3         1 0CP      -0.081400
     13 C9           6.2480     0.5880    -1.0350 c3         1 0CP      -0.068700
     14 C10          6.4150    -0.7850    -1.7780 c3         1 0CP      -0.082400
     15 C11          4.0590    -0.0010     2.5250 ca         1 0CP      -0.183000
     16 C12          3.3020    -0.0000     3.6810 ca         1 0CP      -0.088300
     17 C13          1.9210    -0.0010     3.6070 ca         1 0CP      -0.127000
     18 C14          1.2920     0.0060     2.3750 ca         1 0CP      -0.187000
     19 C15          3.9810    -0.0010     5.0260 c3         1 0CP      -0.063400
     20 C16          3.5700     1.2490     5.8110 c3         1 0CP       0.109500
     21 C17          4.3830     0.0060     7.7550 c          1 0CP       0.822500
     22 C18          3.5510    -1.2380     5.8200 c3         1 0CP       0.109500
     23 H1          -0.3610     0.8860     0.5090 h1         1 0CP       0.041367
     24 H1A         -0.3610    -0.8830     0.5130 h1         1 0CP       0.041367
     25 H1B         -0.3610    -0.0020    -1.0210 h1         1 0CP       0.041367
     26 HN2          4.3320    -2.0200     7.6520 hn         1 0CP       0.343000
     27 H4           5.8360     0.8040     1.1020 h1         1 0CP       0.048700
     28 H5           5.4570    -2.0350     0.5930 hc         1 0CP       0.054700
     29 H5A          6.7720    -1.2590     1.5080 hc         1 0CP       0.054700
     30 H6           7.4850    -2.5320    -0.8140 hc         1 0CP       0.077700
     31 H7           8.7090    -0.5520     0.6360 hc         1 0CP       0.044700
     32 H7A          9.1710    -0.6810    -1.0780 hc         1 0CP       0.044700
     33 H8           7.7740     1.5100     0.2300 hc         1 0CP       0.046700
     34 H8A          8.2350     1.3820    -1.4840 hc         1 0CP       0.046700
     35 H9           5.7210     1.3610    -1.5810 hc         1 0CP       0.087700
     36 H10          7.0160    -0.6890    -2.6740 hc         1 0CP       0.057200
     37 H10A         5.4590    -1.2570    -1.9730 hc         1 0CP       0.057200
     38 H11          5.1410    -0.0010     2.5860 ha         1 0CP       0.146000
     39 H13          1.3310     0.0020     4.5150 ha         1 0CP       0.133000
     40 H14          0.2100     0.0050     2.3190 ha         1 0CP       0.142000
     41 H15          5.0570    -0.0100     4.8960 hc         1 0CP       0.071700
     42 H16          4.0530     2.0850     5.3200 h1         1 0CP       0.053700
     43 H16A         2.4960     1.1840     5.9400 h1         1 0CP       0.053700
     44 H18          3.9070    -2.1300     5.3200 h1         1 0CP       0.053700
     45 H18A         2.4700    -1.2640     5.8910 h1         1 0CP       0.053700
     46 HN1          4.3630     2.0320     7.6380 hn         1 0CP       0.343000
     47 O3           4.8520     0.0070     8.8760 o          1 0CP      -0.703500
@<TRIPOS>BOND
     1     1     3 1
     2     2    20 1
     3     2    21 1
     4     3     4 1
     5     4     7 ar
     6     4    18 ar
     7     5    21 1
     8     5    22 1
     9     6     7 1
    10     6     8 1
    11     7    15 ar
    12    47    21 2
    13     8     9 1
    14     8    13 1
    15     9    10 1
    16    10    11 1
    17    10    14 1
    18    11    12 1
    19    12    13 1
    20    13    14 1
    21    15    16 ar
    22    16    17 ar
    23    16    19 1
    24    17    18 ar
    25    19    20 1
    26    19    22 1
    27     1    23 1
    28     1    24 1
    29     1    25 1
    30     2    46 1
    31     5    26 1
    32     8    27 1
    33     9    28 1
    34     9    29 1
    35    10    30 1
    36    11    31 1
    37    11    32 1
    38    12    33 1
    39    12    34 1
    40    13    35 1
    41    14    36 1
    42    14    37 1
    43    15    38 1
    44    17    39 1
    45    18    40 1
    46    19    41 1
    47    20    42 1
    48    20    43 1
    49    22    44 1
    50    22    45 1
@<TRIPOS>SUBSTRUCTURE
     1 0CP         1 TEMP              0 ****  ****    0 ROOT
