@<TRIPOS>MOLECULE
0CP
   47    50     1     0     0
SMALL
bcc


@<TRIPOS>ATOM
      1 C1           0.0420     0.0220    -0.0750 c3         1 0CP       0.109700
      2 N1           6.2830    -1.1150     5.8870 ns         1 0CP      -0.568400
      3 O1           1.4650     0.0540    -0.0930 os         1 0CP      -0.302900
      4 C2           2.0840     0.0360     1.1400 ca         1 0CP       0.107100
      5 N2           5.9230     1.2630     6.1790 ns         1 0CP      -0.568400
      6 O2           4.0570     0.2930    -0.1410 os         1 0CP      -0.303900
      7 C3           3.5030     0.1420     1.1120 ca         1 0CP       0.109100
      8 C4           5.4570     0.0140    -0.2590 c3         1 0CP       0.131100
      9 C5           5.7100    -0.2940    -1.7590 c3         1 0CP      -0.079400
     10 C6           6.7180     0.7900    -2.1840 c3         1 0CP      -0.078700
     11 C7           8.0560     0.4780    -1.4840 c3         1 0CP      -0.083400
     12 C8           7.7850     0.8120    -0.0050 c3         1 0CP      -0.082400
     13 C9           6.3170     1.2800     0.0030 c3         1 0CP      -0.102700
     14 C10          6.2170     2.0060    -1.3620 c3         1 0CP      -0.080400
     15 C11          4.2210     0.1260     2.3060 ca         1 0CP      -0.174000
     16 C12          3.5510     0.0040     3.5340 ca         1 0CP      -0.088300
     17 C13          2.1600    -0.0950     3.5520 ca         1 0CP      -0.118000
     18 C14          1.4270    -0.0770     2.3640 ca         1 0CP      -0.181000
     19 C15          4.3110    -0.0140     4.8180 c3         1 0CP      -0.039400
     20 C16          5.2750    -1.2120     4.8700 c3         1 0CP       0.098000
     21 C17          6.5850     0.0810     6.5430 c          1 0CP       0.791500
     22 C18          5.0920     1.2990     5.0080 c3         1 0CP       0.098000
     23 H1          -0.3250    -0.9330     0.3740 h1         1 0CP       0.045033
     24 H1A         -0.3680     0.9000     0.4810 h1         1 0CP       0.045033
     25 H1B         -0.2300     0.0790    -1.1590 h1         1 0CP       0.045033
     26 HN2          6.3660     2.1080     6.4570 hn         1 0CP       0.328500
     27 H4           5.7450    -0.8410     0.4020 h1         1 0CP       0.054700
     28 H5           6.1200    -1.3220    -1.8870 hc         1 0CP       0.062200
     29 H5A          4.7600    -0.2060    -2.3390 hc         1 0CP       0.062200
     30 H6           6.7930     0.9370    -3.2770 hc         1 0CP       0.071700
     31 H7           8.3480    -0.5900    -1.6180 hc         1 0CP       0.045200
     32 H7A          8.8710     1.1200    -1.8960 hc         1 0CP       0.045200
     33 H8           8.4550     1.6310     0.3500 hc         1 0CP       0.045200
     34 H8A          7.9380    -0.0750     0.6530 hc         1 0CP       0.045200
     35 H9           6.0110     1.8670     0.8880 hc         1 0CP       0.074700
     36 H10          6.8900     2.8870    -1.4350 hc         1 0CP       0.057700
     37 H10A         5.1740     2.2980    -1.6130 hc         1 0CP       0.057700
     38 H11          5.3170     0.2160     2.2890 ha         1 0CP       0.145000
     39 H13          1.6250    -0.1890     4.5090 ha         1 0CP       0.136000
     40 H14          0.3310    -0.1570     2.4050 ha         1 0CP       0.142000
     41 H15          3.5820    -0.1140     5.6740 hc         1 0CP       0.071700
     42 H16          4.6720    -2.1510     5.0280 h1         1 0CP       0.044450
     43 H16A         5.7950    -1.3070     3.8710 h1         1 0CP       0.044450
     44 H18          5.7070     1.4950     4.0800 h1         1 0CP       0.044450
     45 H18A         4.3630     2.1500     5.1230 h1         1 0CP       0.044450
     46 HN1          6.5850    -1.9480     6.3340 hn         1 0CP       0.328500
     47 O3           7.4350     0.0920     7.4670 o          1 0CP      -0.679500
@<TRIPOS>BOND
     1     1     3 1   
     2     1    23 1   
     3     1    24 1   
     4     1    25 1   
     5     2    20 1   
     6     2    21 1   
     7     2    46 1   
     8     3     4 1   
     9     4     7 ar  
    10     4    18 ar  
    11     5    21 1   
    12     5    22 1   
    13     5    26 1   
    14     6     7 1   
    15     6     8 1   
    16     7    15 ar  
    17     8     9 1   
    18     8    13 1   
    19     8    27 1   
    20     9    10 1   
    21     9    28 1   
    22     9    29 1   
    23    10    11 1   
    24    10    14 1   
    25    10    30 1   
    26    11    12 1   
    27    11    31 1   
    28    11    32 1   
    29    12    13 1   
    30    12    33 1   
    31    12    34 1   
    32    13    14 1   
    33    13    35 1   
    34    14    36 1   
    35    14    37 1   
    36    15    16 ar  
    37    15    38 1   
    38    16    17 ar  
    39    16    19 1   
    40    17    18 ar  
    41    17    39 1   
    42    18    40 1   
    43    19    20 1   
    44    19    22 1   
    45    19    41 1   
    46    20    42 1   
    47    20    43 1   
    48    21    47 2   
    49    22    44 1   
    50    22    45 1   
@<TRIPOS>SUBSTRUCTURE
     1 0CP         1 TEMP              0 ****  ****    0 ROOT
