@<TRIPOS>MOLECULE
0CT
   14    15     1     0     0
SMALL
bcc


@<TRIPOS>ATOM
      1 NAF          0.0000     0.0000     0.0000 na         1 0CT       0.413900
      2 CAH          1.3750     0.0000     0.0000 ca         1 0CT      -0.234200
      3 CAC          2.3400     0.0000     1.0000 ca         1 0CT      -0.108000
      4 CAA          3.6750    -0.0000     0.6600 ca         1 0CT      -0.055000
      5 CAB          4.0610    -0.0000    -0.6740 ca         1 0CT      -0.132000
      6 CAD          3.1290    -0.0000    -1.6700 ca         1 0CT      -0.008000
      7 CAI          1.7650    -0.0000    -1.3510 ca         1 0CT      -0.011600
      8 NAG          0.6440    -0.0000    -2.1000 nc         1 0CT      -0.128400
      9 NAE         -0.3980     0.0000    -1.3450 nd         1 0CT      -0.333400
     10 H1          -0.5990     0.0000     0.8020 hn         1 0CT       0.162700
     11 H2           2.0450     0.0000     2.0420 ha         1 0CT       0.106000
     12 H3           4.4290    -0.0000     1.4380 ha         1 0CT       0.105000
     13 H4           5.1140    -0.0000    -0.9270 ha         1 0CT       0.109000
     14 H5           3.4430    -0.0000    -2.7070 ha         1 0CT       0.113000
@<TRIPOS>BOND
     1     1     2 1   
     2     1     9 1   
     3     1    10 1   
     4     2     3 ar  
     5     2     7 ar  
     6     3     4 ar  
     7     3    11 1   
     8     4     5 ar  
     9     4    12 1   
    10     5     6 ar  
    11     5    13 1   
    12     6     7 ar  
    13     6    14 1   
    14     7     8 1   
    15     8     9 2   
@<TRIPOS>SUBSTRUCTURE
     1 0CT         1 TEMP              0 ****  ****    0 ROOT
