@<TRIPOS>MOLECULE
molecule
   14    15     1     0     0
SMALL
bcc


@<TRIPOS>ATOM
      1 NAF          0.0000     0.0000     0.0000 na         1 0CT      -0.062100
      2 CAH          1.3750     0.0000     0.0000 ca         1 0CT      -0.068200
      3 CAC          2.3400     0.0000     1.0000 ca         1 0CT      -0.146000
      4 CAA          3.6750    -0.0000     0.6600 ca         1 0CT      -0.084000
      5 CAB          4.0610    -0.0000    -0.6740 ca         1 0CT      -0.157000
      6 CAD          3.1290    -0.0000    -1.6700 ca         1 0CT      -0.045000
      7 CAI          1.7650    -0.0000    -1.3510 ca         1 0CT       0.017400
      8 NAG          0.6440    -0.0000    -2.1000 nc         1 0CT      -0.210400
      9 NAE         -0.3980     0.0000    -1.3450 nd         1 0CT      -0.139400
     10 H1          -0.5990     0.0000     0.8020 hn         1 0CT       0.336700
     11 H2           2.0450     0.0000     2.0420 ha         1 0CT       0.134000
     12 H3           4.4290    -0.0000     1.4380 ha         1 0CT       0.138000
     13 H4           5.1140    -0.0000    -0.9270 ha         1 0CT       0.139000
     14 H5           3.4430    -0.0000    -2.7070 ha         1 0CT       0.147000
@<TRIPOS>BOND
     1     1     9 1   
     2     1     2 1   
     3     3     2 ar  
     4     3     4 ar  
     5     9     8 2   
     6     2     7 ar  
     7     4     5 ar  
     8     8     7 1   
     9     7     6 ar  
    10     5     6 ar  
    11     1    10 1   
    12     3    11 1   
    13     4    12 1   
    14     5    13 1   
    15     6    14 1   
@<TRIPOS>SUBSTRUCTURE
     1 0CT         1 TEMP              0 ****  ****    0 ROOT
