@<TRIPOS>MOLECULE
0CT
   14    15     1     0     0
SMALL
bcc


@<TRIPOS>ATOM
      1 NAF         -0.0420    -0.0040    -0.0020 na         1 0CT      -0.065100
      2 CAH          1.3570     0.0270     0.0990 ca         1 0CT      -0.068200
      3 CAC          2.2790     0.0040     1.1500 ca         1 0CT      -0.133000
      4 CAA          3.6220     0.0540     0.8040 ca         1 0CT      -0.095000
      5 CAB          4.0490     0.1250    -0.5350 ca         1 0CT      -0.157000
      6 CAD          3.1510     0.1490    -1.5930 ca         1 0CT      -0.044000
      7 CAI          1.7890     0.1000    -1.2850 ca         1 0CT       0.009400
      8 NAG          0.5980     0.1040    -2.0720 nc         1 0CT      -0.215400
      9 NAE         -0.4030     0.0440    -1.3040 nd         1 0CT      -0.135400
     10 H1          -0.7080    -0.0540     0.7300 hn         1 0CT       0.330700
     11 H2           1.9550    -0.0510     2.1970 ha         1 0CT       0.143000
     12 H3           4.3810     0.0380     1.6020 ha         1 0CT       0.137000
     13 H4           5.1300     0.1620    -0.7440 ha         1 0CT       0.139000
     14 H5           3.4900     0.2040    -2.6380 ha         1 0CT       0.154000
@<TRIPOS>BOND
     1     1     2 1   
     2     1     9 1   
     3     1    10 1   
     4     2     3 ar  
     5     2     7 ar  
     6     3     4 ar  
     7     3    11 1   
     8     4     5 ar  
     9     4    12 1   
    10     5     6 ar  
    11     5    13 1   
    12     6     7 ar  
    13     6    14 1   
    14     7     8 1   
    15     8     9 2   
@<TRIPOS>SUBSTRUCTURE
     1 0CT         1 TEMP              0 ****  ****    0 ROOT
