@<TRIPOS>MOLECULE
molecule
   14    15     1     0     0
SMALL
bcc


@<TRIPOS>ATOM
      1 CAK          0.0000     0.0000     0.0000 ca         1 0CU      -0.131200
      2 NAG          1.3730     0.0000     0.0000 na         1 0CU       0.024900
      3 NAE          1.7750     0.0000     1.2240 nc         1 0CU      -0.143400
      4 NAF          0.7880    -0.0000     2.0500 nd         1 0CU      -0.227400
      5 CAJ         -0.3700     0.0000     1.3580 ca         1 0CU       0.060400
      6 CAD         -1.7230    -0.0010     1.7060 ca         1 0CU      -0.052000
      7 CAH         -2.6750    -0.0000     0.7250 ca         1 0CU       0.020400
      8 ClA         -4.3560    -0.0000     1.1610 cl         1 0CU      -0.085400
      9 CAC         -2.3130     0.0010    -0.6170 ca         1 0CU      -0.092000
     10 CAI         -0.9840    -0.0050    -0.9830 ca         1 0CU       0.039400
     11 ClB         -0.5400    -0.0030    -2.6610 cl         1 0CU      -0.094400
     12 H1           1.9600     0.0000    -0.8110 hn         1 0CU       0.349700
     13 H2          -2.0160     0.0880     2.7450 ha         1 0CU       0.167000
     14 H3          -3.0800     0.0010    -1.3810 ha         1 0CU       0.165000
@<TRIPOS>BOND
     1    11    10 1
     2     2     3 1
     3     2     1 1
     4     3     4 2
     5    10     1 ar
     6    10     9 ar
     7     1     5 ar
     8     4     5 1
     9     9     7 ar
    10     5     6 ar
    11     7     6 ar
    12     7     8 1
    13     2    12 1
    14     6    13 1
    15     9    14 1
@<TRIPOS>SUBSTRUCTURE
     1 0CU         1 TEMP              0 ****  ****    0 ROOT
