@<TRIPOS>MOLECULE
0CU
   14    15     1     0     0
SMALL
bcc


@<TRIPOS>ATOM
      1 CAK         -0.0010    -0.0060    -0.0670 ca         1 0CU      -0.071200
      2 NAG          1.3990    -0.0020    -0.0440 na         1 0CU      -0.049100
      3 NAE          1.8270    -0.0250     1.2380 nc         1 0CU      -0.124400
      4 NAF          0.8670    -0.0450     2.0600 nd         1 0CU      -0.207400
      5 CAJ         -0.3650    -0.0350     1.3370 ca         1 0CU       0.025400
      6 CAD         -1.7060    -0.0470     1.7220 ca         1 0CU      -0.037000
      7 CAH         -2.6580    -0.0300     0.7050 ca         1 0CU      -0.005600
      8 ClA         -4.3070    -0.0440     1.1160 cl         1 0CU      -0.076400
      9 CAC         -2.3130    -0.0020    -0.6640 ca         1 0CU      -0.085000
     10 CAI         -0.9830     0.0110    -1.0660 ca         1 0CU       0.017400
     11 ClB         -0.5500     0.0450    -2.7020 cl         1 0CU      -0.067400
     12 H1           2.0230     0.0160    -0.8160 hn         1 0CU       0.340700
     13 H2          -1.9900    -0.0690     2.7850 ha         1 0CU       0.173000
     14 H3          -3.1140     0.0110    -1.4220 ha         1 0CU       0.167000
@<TRIPOS>BOND
     1     1     2 1   
     2     1     5 ar  
     3     1    10 ar  
     4     2     3 1   
     5     2    12 1   
     6     3     4 2   
     7     4     5 1   
     8     5     6 ar  
     9     6     7 ar  
    10     6    13 1   
    11     7     8 1   
    12     7     9 ar  
    13     9    10 ar  
    14     9    14 1   
    15    10    11 1   
@<TRIPOS>SUBSTRUCTURE
     1 0CU         1 TEMP              0 ****  ****    0 ROOT
