@<TRIPOS>MOLECULE
0CU
   14    15     1     0     0
SMALL
bcc


@<TRIPOS>ATOM
      1 CAK          0.0000     0.0000     0.0000 ca         1 0CU      -0.325200
      2 NAG          1.3730     0.0000     0.0000 na         1 0CU       0.543900
      3 NAE          1.7750     0.0000     1.2240 nc         1 0CU      -0.324400
      4 NAF          0.7880    -0.0000     2.0500 nd         1 0CU      -0.187400
      5 CAJ         -0.3700     0.0000     1.3580 ca         1 0CU       0.050400
      6 CAD         -1.7230    -0.0010     1.7060 ca         1 0CU      -0.025000
      7 CAH         -2.6750    -0.0000     0.7250 ca         1 0CU      -0.042600
      8 ClA         -4.3560    -0.0000     1.1610 cl         1 0CU      -0.007400
      9 CAC         -2.3130     0.0010    -0.6170 ca         1 0CU      -0.077000
     10 CAI         -0.9840    -0.0050    -0.9830 ca         1 0CU      -0.004600
     11 ClB         -0.5400    -0.0030    -2.6610 cl         1 0CU      -0.016400
     12 H1           1.9600     0.0000    -0.8110 hn         1 0CU       0.158700
     13 H2          -2.0160     0.0880     2.7450 ha         1 0CU       0.129000
     14 H3          -3.0800     0.0010    -1.3810 ha         1 0CU       0.129000
@<TRIPOS>BOND
     1     1     2 1   
     2     1     5 ar  
     3     1    10 ar  
     4     2     3 1   
     5     2    12 1   
     6     3     4 2   
     7     4     5 1   
     8     5     6 ar  
     9     6     7 ar  
    10     6    13 1   
    11     7     8 1   
    12     7     9 ar  
    13     9    10 ar  
    14     9    14 1   
    15    10    11 1   
@<TRIPOS>SUBSTRUCTURE
     1 0CU         1 TEMP              0 ****  ****    0 ROOT
