@<TRIPOS>MOLECULE
molecule
   44    47     1     0     0
SMALL
bcc


@<TRIPOS>ATOM
      1 C11          0.0000     0.0000     0.0000 ca         1 0CV      -0.176000
      2 C20          0.0180     0.0110     2.4020 ca         1 0CV      -0.182000
      3 C8           1.4040     0.0000     0.0000 ca         1 0CV      -0.188300
      4 C9           3.5290    -0.0020    -1.1290 ca         1 0CV      -0.327200
      5 C15          1.3770     0.0010     2.4340 ca         1 0CV      -0.097600
      6 C10          2.1080     0.0000     1.2300 ca         1 0CV       0.458600
      7 C7           2.1320    -0.0010    -1.2100 ca         1 0CV       0.197600
      8 C16         -0.6740     0.0060     1.1870 ca         1 0CV       0.129100
      9 C13          4.5990    -0.0020    -2.1220 cc         1 0CV       0.392900
     10 C12          4.1580    -0.0020     0.1360 ca         1 0CV       0.500800
     11 C2           0.6690    -1.2120    -2.5960 c3         1 0CV       0.156800
     12 C6           0.6700     1.2090    -2.5970 c3         1 0CV       0.156800
     13 C3           0.0370    -1.2120    -3.9900 c3         1 0CV       0.156800
     14 C5           0.0370     1.2080    -3.9910 c3         1 0CV       0.156800
     15 C23          2.1010     0.0080     3.7560 c3         1 0CV      -0.037800
     16 C19          4.4230    -0.0030    -3.6190 c3         1 0CV      -0.085400
     17 C22         -2.6820     0.0330     2.4620 c3         1 0CV       0.128700
     18 N18          5.7320    -0.0030    -1.4830 nd         1 0CV      -0.491100
     19 N17          5.5090    -0.0030    -0.1030 na         1 0CV      -0.172800
     20 N14          3.4440    -0.0010     1.2490 nb         1 0CV      -0.732000
     21 N1           1.4870    -0.0020    -2.4330 nh         1 0CV      -0.624000
     22 N4          -0.7810    -0.0020    -4.1540 n7         1 0CV      -0.821200
     23 O21         -2.0350     0.0160     1.1880 os         1 0CV      -0.327900
     24 H11         -0.5450    -0.0040    -0.9360 ha         1 0CV       0.168000
     25 H20         -0.5380     0.0160     3.3320 ha         1 0CV       0.140000
     26 H21         -0.1120    -1.2220    -1.8450 h1         1 0CV       0.056700
     27 H22          1.2960    -2.0880    -2.4840 h1         1 0CV       0.056700
     28 H62         -0.1110     1.2220    -1.8470 h1         1 0CV       0.056700
     29 H61          1.2990     2.0850    -2.4880 h1         1 0CV       0.056700
     30 H32          0.8190    -1.2240    -4.7400 h1         1 0CV       0.040450
     31 H31         -0.5900    -2.0880    -4.1010 h1         1 0CV       0.040450
     32 H51          0.8190     1.2180    -4.7410 h1         1 0CV       0.040450
     33 H52         -0.5900     2.0840    -4.1030 h1         1 0CV       0.040450
     34 H233         2.8050    -0.8150     3.7860 hc         1 0CV       0.049033
     35 H232         1.3840    -0.1000     4.5610 hc         1 0CV       0.049033
     36 H231         2.6340     0.9440     3.8700 hc         1 0CV       0.049033
     37 H193         5.3950    -0.0030    -4.0960 hc         1 0CV       0.055367
     38 H191         3.8740    -0.8880    -3.9180 hc         1 0CV       0.055367
     39 H192         3.8730     0.8810    -3.9180 hc         1 0CV       0.055367
     40 H221        -2.3640     0.9070     3.0170 h1         1 0CV       0.041367
     41 H223        -3.7560     0.0660     2.3210 h1         1 0CV       0.041367
     42 H222        -2.4180    -0.8610     3.0130 h1         1 0CV       0.041367
     43 H17          6.2220    -0.0040     0.5990 hn         1 0CV       0.339700
     44 H1          -1.1980    -0.0020    -5.0640 hn         1 0CV       0.356800
@<TRIPOS>BOND
     1    23    17 1
     2    23     8 1
     3     2     8 ar
     4     2     5 ar
     5     8     1 ar
     6    15     5 1
     7     5     6 ar
     8     1     3 ar
     9     6     3 ar
    10     6    20 ar
    11     3     7 ar
    12    20    10 ar
    13     7    21 1
    14     7     4 ar
    15    12    21 1
    16    12    14 1
    17    21    11 1
    18    10     4 ar
    19    10    19 1
    20    11    13 1
    21    22    14 1
    22    22    13 1
    23     4     9 1
    24    19    18 1
    25     9    18 2
    26     9    16 1
    27     1    24 1
    28     2    25 1
    29    11    26 1
    30    11    27 1
    31    12    28 1
    32    12    29 1
    33    13    30 1
    34    13    31 1
    35    14    32 1
    36    14    33 1
    37    15    34 1
    38    15    35 1
    39    15    36 1
    40    16    37 1
    41    16    38 1
    42    16    39 1
    43    17    40 1
    44    17    41 1
    45    17    42 1
    46    19    43 1
    47    22    44 1
@<TRIPOS>SUBSTRUCTURE
     1 0CV         1 TEMP              0 ****  ****    0 ROOT
