@<TRIPOS>MOLECULE
0CV
   44    47     1     0     0
SMALL
bcc


@<TRIPOS>ATOM
      1 C11         -0.0290     0.1770    -0.0750 ca         1 0CV      -0.214000
      2 C20         -0.1320     0.0400     2.3600 ca         1 0CV      -0.134000
      3 C8           1.3900     0.0890    -0.0310 ca         1 0CV      -0.142300
      4 C9           3.5570     0.0420    -1.0780 ca         1 0CV      -0.286200
      5 C15          1.2330    -0.0450     2.4450 ca         1 0CV      -0.091600
      6 C10          2.0430    -0.0240     1.2440 ca         1 0CV       0.407600
      7 C7           2.1840     0.1140    -1.2360 ca         1 0CV       0.201600
      8 C16         -0.7650     0.1530     1.0870 ca         1 0CV       0.129100
      9 C13          4.7440     0.0470    -1.9500 cc         1 0CV       0.389900
     10 C12          4.1160    -0.0840     0.2730 ca         1 0CV       0.424800
     11 C2           0.9170    -0.9660    -2.9970 c3         1 0CV       0.185300
     12 C6           1.0630     1.4840    -2.8910 c3         1 0CV       0.185300
     13 C3           0.4370    -0.8530    -4.4590 c3         1 0CV       0.158300
     14 C5           0.5810     1.5550    -4.3550 c3         1 0CV       0.158300
     15 C23          1.8860    -0.1630     3.7720 c3         1 0CV      -0.049800
     16 C19          4.7000     0.1590    -3.4200 c3         1 0CV      -0.103400
     17 C22         -2.8320     0.3380    -0.0820 c3         1 0CV       0.111700
     18 N18          5.8560    -0.0630    -1.2040 nd         1 0CV      -0.519100
     19 N17          5.5310    -0.2460     0.0930 na         1 0CV      -0.113800
     20 N14          3.4080    -0.1140     1.4000 nb         1 0CV      -0.662000
     21 N1           1.6680     0.2020    -2.5640 nh         1 0CV      -0.656000
     22 N4          -0.2190     0.4090    -4.7390 n7         1 0CV      -0.821200
     23 O21         -2.1410     0.2330     1.1580 os         1 0CV      -0.324900
     24 H11         -0.5400     0.2670    -1.0440 ha         1 0CV       0.148000
     25 H20         -0.7670     0.0240     3.2590 ha         1 0CV       0.155000
     26 H21          0.0220    -1.1720    -2.3410 h1         1 0CV       0.044200
     27 H22          1.6060    -1.8540    -2.9240 h1         1 0CV       0.044200
     28 H62          0.1970     1.7380    -2.2150 h1         1 0CV       0.044200
     29 H61          1.8530     2.2740    -2.7460 h1         1 0CV       0.044200
     30 H32         -0.3100    -1.6760    -4.6400 h1         1 0CV       0.037200
     31 H31          1.3220    -1.0330    -5.1360 h1         1 0CV       0.037200
     32 H51         -0.0610     2.4730    -4.4600 h1         1 0CV       0.037200
     33 H52          1.4850     1.6860    -5.0190 h1         1 0CV       0.037200
     34 H233         1.1280    -0.1680     4.5940 hc         1 0CV       0.052700
     35 H232         2.5840     0.6960     3.9390 hc         1 0CV       0.052700
     36 H231         2.4800    -1.1090     3.8300 hc         1 0CV       0.052700
     37 H193         4.1340    -0.7110    -3.8400 hc         1 0CV       0.056700
     38 H191         5.7230     0.1760    -3.8700 hc         1 0CV       0.056700
     39 H192         4.1620     1.0980    -3.7040 hc         1 0CV       0.056700
     40 H221        -3.9080     0.3820     0.2240 h1         1 0CV       0.046700
     41 H223        -2.5360     1.2720    -0.6200 h1         1 0CV       0.046700
     42 H222        -2.6380    -0.5580    -0.7190 h1         1 0CV       0.046700
     43 H17          6.1730     0.1180     0.7680 hn         1 0CV       0.304700
     44 H1          -0.4550     0.4650    -5.7120 hn         1 0CV       0.366800
@<TRIPOS>BOND
     1     1     3 ar  
     2     1     8 ar  
     3     1    24 1   
     4     2     5 ar  
     5     2     8 ar  
     6     2    25 1   
     7     3     6 ar  
     8     3     7 ar  
     9     4     7 ar  
    10     4     9 1   
    11     4    10 ar  
    12     5     6 ar  
    13     5    15 1   
    14     6    20 ar  
    15     7    21 1   
    16     8    23 1   
    17     9    16 1   
    18     9    18 2   
    19    10    19 1   
    20    10    20 ar  
    21    11    13 1   
    22    11    21 1   
    23    11    26 1   
    24    11    27 1   
    25    12    14 1   
    26    12    21 1   
    27    12    28 1   
    28    12    29 1   
    29    13    22 1   
    30    13    30 1   
    31    13    31 1   
    32    14    22 1   
    33    14    32 1   
    34    14    33 1   
    35    15    34 1   
    36    15    35 1   
    37    15    36 1   
    38    16    37 1   
    39    16    38 1   
    40    16    39 1   
    41    17    23 1   
    42    17    40 1   
    43    17    41 1   
    44    17    42 1   
    45    18    19 1   
    46    19    43 1   
    47    22    44 1   
@<TRIPOS>SUBSTRUCTURE
     1 0CV         1 TEMP              0 ****  ****    0 ROOT
