@<TRIPOS>MOLECULE
0CX
   63    66     1     0     0
SMALL
bcc


@<TRIPOS>ATOM
      1 O4           0.0000     0.0000     0.0000 o          1 0CX      -0.559100
      2 C15          1.2200     0.0000     0.0000 c          1 0CX       0.648300
      3 C16          1.9120     0.0000     1.3330 c3         1 0CX      -0.158700
      4 C24          2.6270     1.3280     1.5770 c3         1 0CX       0.016900
      5 C17          2.9040    -1.1610     1.4070 c3         1 0CX       0.201100
      6 O5           3.2300    -1.4200     2.7760 oh         1 0CX      -0.582800
      7 C18          2.2910    -2.4160     0.7870 c3         1 0CX      -0.079400
      8 C19          0.9730    -2.7640     1.4740 c3         1 0CX      -0.042400
      9 C20          0.3600    -4.0010     0.8180 c3         1 0CX      -0.035400
     10 C21         -0.6640    -3.5680    -0.2380 c3         1 0CX       0.185100
     11 C22         -1.1730    -4.8030    -0.9860 c3         1 0CX      -0.053400
     12 C23         -2.2840    -4.3920    -1.9540 c3         1 0CX      -0.009100
     13 O1          -0.0290    -2.6630    -1.1690 os         1 0CX      -0.418900
     14 C14          1.9240    -0.0300    -1.2740 ce         1 0CX      -0.206400
     15 C13          3.0460     0.5950    -1.5910 c2         1 0CX      -0.097200
     16 C12          3.4120     0.3770    -3.0380 c3         1 0CX      -0.003500
     17 C11          4.7130    -0.3750    -3.1770 c3         1 0CX      -0.044700
     18 C10          5.9850     0.4090    -2.8650 c3         1 0CX      -0.039400
     19 C9           7.0800    -0.2620    -3.7300 c3         1 0CX       0.192100
     20 C8           6.3500    -1.1580    -4.7590 c3         1 0CX      -0.037400
     21 O2           7.8480     0.7340    -4.4070 oh         1 0CX      -0.583800
     22 C7           4.8860    -0.7230    -4.6850 c3         1 0CX      -0.014500
     23 C6           3.8870    -1.8140    -4.9440 c2         1 0CX      -0.140200
     24 C5           2.6850    -1.6220    -4.4480 c2         1 0CX      -0.151200
     25 C4           2.2600    -0.4240    -3.6630 c3         1 0CX       0.006500
     26 C3           1.4540    -0.8800    -2.4350 c3         1 0CX      -0.014500
     27 C2          -0.0470    -0.7160    -2.6570 c3         1 0CX      -0.066400
     28 C1          -0.7660    -1.7170    -1.7730 c          1 0CX       0.710100
     29 O3          -1.9610    -1.6550    -1.6200 o          1 0CX      -0.575000
     30 H1           1.1670    -0.1360     2.1070 hc         1 0CX       0.072700
     31 H2           2.1410     2.1100     1.0060 hc         1 0CX       0.008033
     32 H3           2.5850     1.5730     2.6320 hc         1 0CX       0.008033
     33 H4           3.6620     1.2450     1.2670 hc         1 0CX       0.008033
     34 H5           3.8060    -0.8970     0.8670 h1         1 0CX       0.004700
     35 H6           4.1580    -1.5720     2.8560 ho         1 0CX       0.389000
     36 H7           2.1100    -2.2410    -0.2670 hc         1 0CX       0.033200
     37 H8           2.9820    -3.2430     0.8980 hc         1 0CX       0.033200
     38 H9           0.2880    -1.9300     1.3830 hc         1 0CX       0.034700
     39 H10          1.1560    -2.9660     2.5230 hc         1 0CX       0.034700
     40 H11         -0.1330    -4.6030     1.5720 hc         1 0CX       0.023700
     41 H12          1.1410    -4.5840     0.3450 hc         1 0CX       0.023700
     42 H13         -1.4950    -3.0680     0.2450 h1         1 0CX       0.043700
     43 H14         -1.5610    -5.5220    -0.2740 hc         1 0CX       0.019200
     44 H15         -0.3570    -5.2510    -1.5410 hc         1 0CX       0.019200
     45 H16         -1.8550    -3.8480    -2.7860 hc         1 0CX       0.010700
     46 H17         -2.9970    -3.7600    -1.4380 hc         1 0CX       0.010700
     47 H18         -2.7870    -5.2780    -2.3230 hc         1 0CX       0.010700
     48 H20          3.3040     1.5260    -1.1010 ha         1 0CX       0.120000
     49 H22          3.4950     1.3360    -3.5360 hc         1 0CX       0.037700
     50 H23          4.6820    -1.2840    -2.5880 hc         1 0CX       0.042700
     51 H24          6.2320     0.3240    -1.8130 hc         1 0CX       0.025200
     52 H25          5.8660     1.4480    -3.1480 hc         1 0CX       0.025200
     53 H26          7.7220    -0.8700    -3.1040 h1         1 0CX      -0.003300
     54 H27          6.7430    -0.9850    -5.7530 hc         1 0CX       0.027200
     55 H28          6.4460    -2.2010    -4.4840 hc         1 0CX       0.027200
     56 H29          8.7520     0.6640    -4.1480 ho         1 0CX       0.387000
     57 H30          4.6980     0.1420    -5.3090 hc         1 0CX       0.049700
     58 H31          4.0270    -2.4900    -5.7780 ha         1 0CX       0.113000
     59 H32          1.9440    -2.3920    -4.6240 ha         1 0CX       0.100000
     60 H33          1.6520     0.2260    -4.2810 hc         1 0CX       0.044700
     61 H34          1.6790    -1.9200    -2.2280 hc         1 0CX       0.065700
     62 H35         -0.3480     0.2900    -2.3910 hc         1 0CX       0.052200
     63 H36         -0.2860    -0.9070    -3.6960 hc         1 0CX       0.052200
@<TRIPOS>BOND
     1     1     2 2   
     2     2     3 1   
     3     2    14 1   
     4     3     4 1   
     5     3     5 1   
     6     3    30 1   
     7     4    31 1   
     8     4    32 1   
     9     4    33 1   
    10     5     6 1   
    11     5     7 1   
    12     5    34 1   
    13     6    35 1   
    14     7     8 1   
    15     7    36 1   
    16     7    37 1   
    17     8     9 1   
    18     8    38 1   
    19     8    39 1   
    20     9    10 1   
    21     9    40 1   
    22     9    41 1   
    23    10    11 1   
    24    10    13 1   
    25    10    42 1   
    26    11    12 1   
    27    11    43 1   
    28    11    44 1   
    29    12    45 1   
    30    12    46 1   
    31    12    47 1   
    32    13    28 1   
    33    14    15 2   
    34    14    26 1   
    35    15    16 1   
    36    15    48 1   
    37    16    17 1   
    38    16    25 1   
    39    16    49 1   
    40    17    18 1   
    41    17    22 1   
    42    17    50 1   
    43    18    19 1   
    44    18    51 1   
    45    18    52 1   
    46    19    20 1   
    47    19    21 1   
    48    19    53 1   
    49    20    22 1   
    50    20    54 1   
    51    20    55 1   
    52    21    56 1   
    53    22    23 1   
    54    22    57 1   
    55    23    24 2   
    56    23    58 1   
    57    24    25 1   
    58    24    59 1   
    59    25    26 1   
    60    25    60 1   
    61    26    27 1   
    62    26    61 1   
    63    27    28 1   
    64    27    62 1   
    65    27    63 1   
    66    28    29 2   
@<TRIPOS>SUBSTRUCTURE
     1 0CX         1 TEMP              0 ****  ****    0 ROOT
