@<TRIPOS>MOLECULE
molecule
   63    66     1     0     0
SMALL
bcc


@<TRIPOS>ATOM
      1 O4           0.0000     0.0000     0.0000 o          1 0CX      -0.528100
      2 C15          1.2200     0.0000     0.0000 c          1 0CX       0.593300
      3 C16          1.9120     0.0000     1.3330 c3         1 0CX      -0.166700
      4 C24          2.6270     1.3280     1.5770 c3         1 0CX      -0.081100
      5 C17          2.9040    -1.1610     1.4070 c3         1 0CX       0.156100
      6 O5           3.2300    -1.4200     2.7760 oh         1 0CX      -0.603800
      7 C18          2.2910    -2.4160     0.7870 c3         1 0CX      -0.108400
      8 C19          0.9730    -2.7640     1.4740 c3         1 0CX      -0.081400
      9 C20          0.3600    -4.0010     0.8180 c3         1 0CX      -0.081400
     10 C21         -0.6640    -3.5680    -0.2380 c3         1 0CX       0.153100
     11 C22         -1.1730    -4.8030    -0.9860 c3         1 0CX      -0.104400
     12 C23         -2.2840    -4.3920    -1.9540 c3         1 0CX      -0.094100
     13 O1          -0.0290    -2.6630    -1.1690 os         1 0CX      -0.440900
     14 C14          1.9240    -0.0300    -1.2740 ce         1 0CX      -0.198400
     15 C13          3.0460     0.5950    -1.5910 c2         1 0CX      -0.118200
     16 C12          3.4120     0.3770    -3.0380 c3         1 0CX      -0.032500
     17 C11          4.7130    -0.3750    -3.1770 c3         1 0CX      -0.061700
     18 C10          5.9850     0.4090    -2.8650 c3         1 0CX      -0.088400
     19 C9           7.0800    -0.2620    -3.7300 c3         1 0CX       0.142100
     20 C8           6.3500    -1.1580    -4.7590 c3         1 0CX      -0.085400
     21 O2           7.8480     0.7340    -4.4070 oh         1 0CX      -0.603800
     22 C7           4.8860    -0.7230    -4.6850 c3         1 0CX      -0.045500
     23 C6           3.8870    -1.8140    -4.9440 c2         1 0CX      -0.160200
     24 C5           2.6850    -1.6220    -4.4480 c2         1 0CX      -0.167200
     25 C4           2.2600    -0.4240    -3.6630 c3         1 0CX      -0.027500
     26 C3           1.4540    -0.8800    -2.4350 c3         1 0CX      -0.035500
     27 C2          -0.0470    -0.7160    -2.6570 c3         1 0CX      -0.111400
     28 C1          -0.7660    -1.7170    -1.7730 c          1 0CX       0.650100
     29 O3          -1.9610    -1.6550    -1.6200 o          1 0CX      -0.540000
     30 H1           1.1670    -0.1360     2.1070 hc         1 0CX       0.098700
     31 H2           2.5850     1.5730     2.6320 hc         1 0CX       0.041033
     32 H3           2.1410     2.1100     1.0060 hc         1 0CX       0.041033
     33 H4           3.6620     1.2450     1.2670 hc         1 0CX       0.041033
     34 H5           3.8060    -0.8970     0.8670 h1         1 0CX       0.034700
     35 H6           4.1600    -1.5590     2.8580 ho         1 0CX       0.402000
     36 H7           2.9820    -3.2430     0.8980 hc         1 0CX       0.055200
     37 H8           2.1100    -2.2410    -0.2670 hc         1 0CX       0.055200
     38 H9           1.1560    -2.9660     2.5230 hc         1 0CX       0.057200
     39 H10          0.2880    -1.9300     1.3830 hc         1 0CX       0.057200
     40 H11         -0.1330    -4.6030     1.5720 hc         1 0CX       0.051700
     41 H12          1.1410    -4.5840     0.3450 hc         1 0CX       0.051700
     42 H13         -1.4950    -3.0680     0.2450 h1         1 0CX       0.073700
     43 H14         -0.3570    -5.2510    -1.5410 hc         1 0CX       0.047700
     44 H15         -1.5610    -5.5220    -0.2740 hc         1 0CX       0.047700
     45 H16         -2.7960    -5.2770    -2.3120 hc         1 0CX       0.040367
     46 H17         -2.9890    -3.7490    -1.4420 hc         1 0CX       0.040367
     47 H18         -1.8530    -3.8600    -2.7930 hc         1 0CX       0.040367
     48 H20          3.3040     1.5260    -1.1010 ha         1 0CX       0.143000
     49 H22          3.4950     1.3360    -3.5360 hc         1 0CX       0.063700
     50 H23          4.6820    -1.2840    -2.5880 hc         1 0CX       0.064700
     51 H24          5.8660     1.4480    -3.1480 hc         1 0CX       0.054700
     52 H25          6.2320     0.3240    -1.8130 hc         1 0CX       0.054700
     53 H26          7.7220    -0.8700    -3.1040 h1         1 0CX       0.032700
     54 H27          6.4460    -2.2010    -4.4840 hc         1 0CX       0.056700
     55 H28          6.7430    -0.9850    -5.7530 hc         1 0CX       0.056700
     56 H29          8.7530     0.6590    -4.1530 ho         1 0CX       0.400000
     57 H30          4.6980     0.1420    -5.3090 hc         1 0CX       0.075700
     58 H31          4.0270    -2.4900    -5.7780 ha         1 0CX       0.136000
     59 H32          1.9440    -2.3920    -4.6240 ha         1 0CX       0.123000
     60 H33          1.6520     0.2260    -4.2810 hc         1 0CX       0.071700
     61 H34          1.6790    -1.9200    -2.2280 hc         1 0CX       0.089700
     62 H35         -0.2860    -0.9070    -3.6960 hc         1 0CX       0.084700
     63 H36         -0.3480     0.2900    -2.3910 hc         1 0CX       0.084700
@<TRIPOS>BOND
     1     4     3 1
     2     1     2 2
     3    19    18 1
     4    19    20 1
     5    19    21 1
     6     3     5 1
     7     3     2 1
     8     6     5 1
     9     5     7 1
    10     2    14 1
    11    18    17 1
    12    20    22 1
    13    17    22 1
    14    17    16 1
    15    14    15 2
    16    14    26 1
    17    15    16 1
    18    22    23 1
    19     7     8 1
    20    26    25 1
    21    26    27 1
    22    23    24 2
    23    16    25 1
    24    24    25 1
    25    27    28 1
    26     8     9 1
    27    28    13 1
    28    28    29 2
    29    13    10 1
    30     9    10 1
    31    10    11 1
    32    11    12 1
    33     3    30 1
    34     4    31 1
    35     4    32 1
    36     4    33 1
    37     5    34 1
    38     6    35 1
    39     7    36 1
    40     7    37 1
    41     8    38 1
    42     8    39 1
    43     9    40 1
    44     9    41 1
    45    10    42 1
    46    11    43 1
    47    11    44 1
    48    12    45 1
    49    12    46 1
    50    12    47 1
    51    15    48 1
    52    16    49 1
    53    17    50 1
    54    18    51 1
    55    18    52 1
    56    19    53 1
    57    20    54 1
    58    20    55 1
    59    21    56 1
    60    22    57 1
    61    23    58 1
    62    24    59 1
    63    25    60 1
    64    26    61 1
    65    27    62 1
    66    27    63 1
@<TRIPOS>SUBSTRUCTURE
     1 0CX         1 TEMP              0 ****  ****    0 ROOT
