@<TRIPOS>MOLECULE
0CX
   63    66     1     0     0
SMALL
bcc


@<TRIPOS>ATOM
      1 O4          -0.1510     0.1350    -0.0760 o          1 0CX      -0.536100
      2 C15          1.0720    -0.0250     0.0240 c          1 0CX       0.591300
      3 C16          1.7590    -0.1440     1.3680 c3         1 0CX      -0.155700
      4 C24          1.6390    -1.5710     1.8690 c3         1 0CX      -0.086100
      5 C17          1.1390     0.8290     2.3810 c3         1 0CX       0.150100
      6 O5           1.8490     0.6380     3.6020 oh         1 0CX      -0.603800
      7 C18          1.1850     2.2830     1.9250 c3         1 0CX      -0.120400
      8 C19          2.5770     2.8790     1.9280 c3         1 0CX      -0.071400
      9 C20          2.5760     4.3010     1.4040 c3         1 0CX      -0.083400
     10 C21          2.8990     4.3980    -0.0860 c3         1 0CX       0.145100
     11 C22          2.7750     5.8400    -0.5730 c3         1 0CX      -0.098400
     12 C23          3.6530     6.1120    -1.7660 c3         1 0CX      -0.098100
     13 O1           1.9210     3.5900    -0.7740 os         1 0CX      -0.441900
     14 C14          1.9370    -0.1220    -1.1590 ce         1 0CX      -0.222400
     15 C13          3.0940    -0.8060    -1.2650 c2         1 0CX      -0.086200
     16 C12          3.6740    -0.7370    -2.6480 c3         1 0CX      -0.031500
     17 C11          3.7760    -2.1050    -3.2860 c3         1 0CX      -0.062700
     18 C10          4.8940    -3.0300    -2.8270 c3         1 0CX      -0.073400
     19 C9           5.1410    -3.9660    -4.0270 c3         1 0CX       0.139100
     20 C8           4.4430    -3.3390    -5.2530 c3         1 0CX      -0.106400
     21 O2           6.5460    -4.0580    -4.2000 oh         1 0CX      -0.596800
     22 C7           4.0260    -1.9480    -4.8000 c3         1 0CX      -0.039500
     23 C6           2.8280    -1.3230    -5.4050 c2         1 0CX      -0.158200
     24 C5           2.2150    -0.3360    -4.7370 c2         1 0CX      -0.165200
     25 C4           2.7040     0.1950    -3.4360 c3         1 0CX      -0.045500
     26 C3           1.5330     0.5050    -2.4690 c3         1 0CX      -0.006500
     27 C2           1.2040     1.9830    -2.3700 c3         1 0CX      -0.126400
     28 C1           2.3210     2.8330    -1.8390 c          1 0CX       0.640100
     29 O3           3.4770     2.9470    -2.2520 o          1 0CX      -0.550000
     30 H1           2.8490     0.1140     1.2550 hc         1 0CX       0.076700
     31 H2           2.1610    -2.2710     1.1730 hc         1 0CX       0.047700
     32 H3           2.1040    -1.6500     2.8820 hc         1 0CX       0.047700
     33 H4           0.5660    -1.8690     1.9430 hc         1 0CX       0.047700
     34 H5           0.0600     0.5370     2.5390 h1         1 0CX       0.051700
     35 H6           1.5540     1.3310     4.2030 ho         1 0CX       0.403000
     36 H7           0.7490     2.3520     0.8920 hc         1 0CX       0.058200
     37 H8           0.5270     2.8870     2.6050 hc         1 0CX       0.058200
     38 H9           3.2630     2.2460     1.3060 hc         1 0CX       0.045200
     39 H10          2.9790     2.8640     2.9760 hc         1 0CX       0.045200
     40 H11          3.3540     4.8990     1.9480 hc         1 0CX       0.051700
     41 H12          1.5810     4.7810     1.5940 hc         1 0CX       0.051700
     42 H13          3.9310     3.9970    -0.2900 h1         1 0CX       0.077700
     43 H14          3.0550     6.5300     0.2650 hc         1 0CX       0.051200
     44 H15          1.7020     6.0430    -0.8310 hc         1 0CX       0.051200
     45 H16          3.4660     5.3560    -2.5690 hc         1 0CX       0.040033
     46 H17          3.4480     7.1300    -2.1740 hc         1 0CX       0.040033
     47 H18          4.7320     6.0540    -1.4840 hc         1 0CX       0.040033
     48 H20          3.5950    -1.3810    -0.4820 ha         1 0CX       0.147000
     49 H22          4.6920    -0.2630    -2.6060 hc         1 0CX       0.078700
     50 H23          2.7940    -2.6370    -3.1400 hc         1 0CX       0.059700
     51 H24          4.6030    -3.6150    -1.9220 hc         1 0CX       0.059700
     52 H25          5.8280    -2.4590    -2.5930 hc         1 0CX       0.059700
     53 H26          4.7260    -4.9910    -3.8260 h1         1 0CX       0.034700
     54 H27          5.1360    -3.2900    -6.1270 hc         1 0CX       0.051200
     55 H28          3.5530    -3.9490    -5.5430 hc         1 0CX       0.051200
     56 H29          6.6970    -4.6140    -4.9730 ho         1 0CX       0.399000
     57 H30          4.9010    -1.2520    -4.9540 hc         1 0CX       0.069700
     58 H31          2.4860    -1.6880    -6.3820 ha         1 0CX       0.131000
     59 H32          1.3220     0.1660    -5.1410 ha         1 0CX       0.125000
     60 H33          3.2620     1.1520    -3.6520 hc         1 0CX       0.093700
     61 H34          0.5950    -0.0100    -2.8250 hc         1 0CX       0.081700
     62 H35          0.9510     2.3730    -3.3920 hc         1 0CX       0.087200
     63 H36          0.3030     2.1050    -1.7060 hc         1 0CX       0.087200
@<TRIPOS>BOND
     1     1     2 2   
     2     2     3 1   
     3     2    14 1   
     4     3     4 1   
     5     3     5 1   
     6     3    30 1   
     7     4    31 1   
     8     4    32 1   
     9     4    33 1   
    10     5     6 1   
    11     5     7 1   
    12     5    34 1   
    13     6    35 1   
    14     7     8 1   
    15     7    36 1   
    16     7    37 1   
    17     8     9 1   
    18     8    38 1   
    19     8    39 1   
    20     9    10 1   
    21     9    40 1   
    22     9    41 1   
    23    10    11 1   
    24    10    13 1   
    25    10    42 1   
    26    11    12 1   
    27    11    43 1   
    28    11    44 1   
    29    12    45 1   
    30    12    46 1   
    31    12    47 1   
    32    13    28 1   
    33    14    15 2   
    34    14    26 1   
    35    15    16 1   
    36    15    48 1   
    37    16    17 1   
    38    16    25 1   
    39    16    49 1   
    40    17    18 1   
    41    17    22 1   
    42    17    50 1   
    43    18    19 1   
    44    18    51 1   
    45    18    52 1   
    46    19    20 1   
    47    19    21 1   
    48    19    53 1   
    49    20    22 1   
    50    20    54 1   
    51    20    55 1   
    52    21    56 1   
    53    22    23 1   
    54    22    57 1   
    55    23    24 2   
    56    23    58 1   
    57    24    25 1   
    58    24    59 1   
    59    25    26 1   
    60    25    60 1   
    61    26    27 1   
    62    26    61 1   
    63    27    28 1   
    64    27    62 1   
    65    27    63 1   
    66    28    29 2   
@<TRIPOS>SUBSTRUCTURE
     1 0CX         1 TEMP              0 ****  ****    0 ROOT
