@<TRIPOS>MOLECULE
0CZ
   33    34     1     0     0
SMALL
bcc


@<TRIPOS>ATOM
      1 CAM          0.0000     0.0000     0.0000 ca         1 0CZ      -0.070250
      2 CAI          1.3810     0.0000     0.0000 ca         1 0CZ      -0.129500
      3 CAQ          2.0740     0.0000     1.2030 ca         1 0CZ       0.143100
      4 OAA          3.4330     0.0020     1.2060 oh         1 0CZ      -0.498600
      5 CAJ          1.3770    -0.0000     2.4020 ca         1 0CZ      -0.129500
      6 CAN         -0.0050    -0.0010     2.3960 ca         1 0CZ      -0.070250
      7 CAS         -0.6920    -0.0010     1.1970 ca         1 0CZ      -0.133800
      8 CAW         -2.2000    -0.0010     1.1940 c3         1 0CZ      -0.041400
      9 CAU         -2.7110     1.2880     1.8400 c3         1 0CZ       0.597900
     10 FAD         -4.1100     1.2880     1.8380 f          1 0CZ      -0.196633
     11 FAE         -2.2480     1.3640     3.1580 f          1 0CZ      -0.196633
     12 FAC         -2.2440     2.3900     1.1160 f          1 0CZ      -0.196633
     13 CAV         -2.7070    -0.0850    -0.2470 c3         1 0CZ       0.597900
     14 FAG         -2.2390     1.0170    -0.9710 f          1 0CZ      -0.196633
     15 FAH         -2.2390    -1.2640    -0.8380 f          1 0CZ      -0.196633
     16 FAF         -4.1060    -0.0850    -0.2500 f          1 0CZ      -0.196633
     17 CAT         -2.7040    -1.1880     1.9740 ca         1 0CZ      -0.133800
     18 CAO         -3.5600    -0.9990     3.0420 ca         1 0CZ      -0.070250
     19 CAK         -4.0220    -2.0860     3.7590 ca         1 0CZ      -0.129500
     20 CAR         -3.6280    -3.3670     3.4040 ca         1 0CZ       0.143100
     21 OAB         -4.0840    -4.4390     4.1060 oh         1 0CZ      -0.498600
     22 CAL         -2.7700    -3.5550     2.3310 ca         1 0CZ      -0.129500
     23 CAP         -2.3130    -2.4660     1.6140 ca         1 0CZ      -0.070250
     24 H1          -0.5410    -0.0000    -0.9380 ha         1 0CZ       0.127500
     25 H2           1.9230     0.0010    -0.9380 ha         1 0CZ       0.119500
     26 H3           3.7480    -0.8870     1.2050 ho         1 0CZ       0.406000
     27 H4           1.9150    -0.0000     3.3420 ha         1 0CZ       0.119500
     28 H5          -0.5500    -0.0010     3.3320 ha         1 0CZ       0.127500
     29 H6          -3.8670     0.0020     3.3190 ha         1 0CZ       0.127500
     30 H7          -4.6930    -1.9370     4.5960 ha         1 0CZ       0.119500
     31 H8          -3.4920    -4.6240     4.8170 ho         1 0CZ       0.406000
     32 H9          -2.4630    -4.5560     2.0520 ha         1 0CZ       0.119500
     33 H10         -1.6430    -2.6110     0.7760 ha         1 0CZ       0.127500
@<TRIPOS>BOND
     1     1     2 ar  
     2     1     7 ar  
     3     1    24 1   
     4     2     3 ar  
     5     2    25 1   
     6     3     4 1   
     7     3     5 ar  
     8     4    26 1   
     9     5     6 ar  
    10     5    27 1   
    11     6     7 ar  
    12     6    28 1   
    13     7     8 1   
    14     8     9 1   
    15     8    13 1   
    16     8    17 1   
    17     9    10 1   
    18     9    11 1   
    19     9    12 1   
    20    13    14 1   
    21    13    15 1   
    22    13    16 1   
    23    17    18 ar  
    24    17    23 ar  
    25    18    19 ar  
    26    18    29 1   
    27    19    20 ar  
    28    19    30 1   
    29    20    21 1   
    30    20    22 ar  
    31    21    31 1   
    32    22    23 ar  
    33    22    32 1   
    34    23    33 1   
@<TRIPOS>SUBSTRUCTURE
     1 0CZ         1 TEMP              0 ****  ****    0 ROOT
