@<TRIPOS>MOLECULE
0CZ
   33    34     1     0     0
SMALL
bcc


@<TRIPOS>ATOM
      1 CAM         -0.0690    -0.2430    -0.0330 ca         1 0CZ      -0.058500
      2 CAI          1.3130    -0.1960    -0.1410 ca         1 0CZ      -0.188500
      3 CAQ          2.0770     0.0980     1.0030 ca         1 0CZ       0.149100
      4 OAA          3.4400     0.1270     0.8400 oh         1 0CZ      -0.490100
      5 CAJ          1.4520     0.3440     2.2320 ca         1 0CZ      -0.188500
      6 CAN          0.0630     0.2950     2.3190 ca         1 0CZ      -0.058500
      7 CAS         -0.7140    -0.0030     1.1950 ca         1 0CZ      -0.162300
      8 CAW         -2.2170    -0.0630     1.2220 c3         1 0CZ       0.024600
      9 CAU         -2.7560     1.2770     0.5600 c3         1 0CZ       0.631900
     10 FAD         -2.2020     2.4140     1.0880 f          1 0CZ      -0.224967
     11 FAE         -2.5250     1.3760    -0.7870 f          1 0CZ      -0.224967
     12 FAC         -4.1070     1.4740     0.6950 f          1 0CZ      -0.224967
     13 CAV         -2.8100    -0.0980     2.6950 c3         1 0CZ       0.631900
     14 FAG         -2.6370     1.0640     3.4050 f          1 0CZ      -0.224967
     15 FAH         -4.1630    -0.3140     2.7410 f          1 0CZ      -0.224967
     16 FAF         -2.2800    -1.0740     3.4970 f          1 0CZ      -0.224967
     17 CAT         -2.6990    -1.3020     0.5150 ca         1 0CZ      -0.162300
     18 CAO         -3.7380    -1.2970    -0.4200 ca         1 0CZ      -0.058500
     19 CAK         -4.1470    -2.4770    -1.0370 ca         1 0CZ      -0.188500
     20 CAR         -3.5140    -3.6830    -0.7100 ca         1 0CZ       0.149100
     21 OAB         -3.8590    -4.8840    -1.2760 oh         1 0CZ      -0.490100
     22 CAL         -2.4720    -3.7090     0.2350 ca         1 0CZ      -0.188500
     23 CAP         -2.0780    -2.5230     0.8360 ca         1 0CZ      -0.058500
     24 H1          -0.6770    -0.4630    -0.9270 ha         1 0CZ       0.151000
     25 H2           1.8170    -0.3810    -1.1000 ha         1 0CZ       0.151000
     26 H3           3.8410     0.3550     1.6920 ho         1 0CZ       0.425000
     27 H4           2.0500     0.5790     3.1240 ha         1 0CZ       0.151000
     28 H5          -0.4090     0.4980     3.2940 ha         1 0CZ       0.151000
     29 H6          -4.2540    -0.3600    -0.6870 ha         1 0CZ       0.151000
     30 H7          -4.9640    -2.4580    -1.7720 ha         1 0CZ       0.151000
     31 H8          -4.5930    -4.7290    -1.8900 ho         1 0CZ       0.425000
     32 H9          -1.9890    -4.6640     0.4850 ha         1 0CZ       0.151000
     33 H10         -1.2680    -2.5360     1.5850 ha         1 0CZ       0.151000
@<TRIPOS>BOND
     1     1     2 ar  
     2     1     7 ar  
     3     1    24 1   
     4     2     3 ar  
     5     2    25 1   
     6     3     4 1   
     7     3     5 ar  
     8     4    26 1   
     9     5     6 ar  
    10     5    27 1   
    11     6     7 ar  
    12     6    28 1   
    13     7     8 1   
    14     8     9 1   
    15     8    13 1   
    16     8    17 1   
    17     9    10 1   
    18     9    11 1   
    19     9    12 1   
    20    13    14 1   
    21    13    15 1   
    22    13    16 1   
    23    17    18 ar  
    24    17    23 ar  
    25    18    19 ar  
    26    18    29 1   
    27    19    20 ar  
    28    19    30 1   
    29    20    21 1   
    30    20    22 ar  
    31    21    31 1   
    32    22    23 ar  
    33    22    32 1   
    34    23    33 1   
@<TRIPOS>SUBSTRUCTURE
     1 0CZ         1 TEMP              0 ****  ****    0 ROOT
