@<TRIPOS>MOLECULE
0D1
   28    29     1     0     0
SMALL
bcc


@<TRIPOS>ATOM
      1 CAI          0.0000     0.0000     0.0000 ca         1 0D1      -0.061500
      2 CAE          1.3790     0.0000     0.0000 ca         1 0D1      -0.138750
      3 CAO          2.0750     0.0000     1.2010 ca         1 0D1       0.131100
      4 OAA          3.4330    -0.0010     1.1980 oh         1 0D1      -0.501100
      5 CAF          1.3850     0.0010     2.4060 ca         1 0D1      -0.138750
      6 CAJ          0.0060     0.0010     2.4140 ca         1 0D1      -0.061500
      7 CAQ         -0.6960     0.0070     1.2090 ca         1 0D1      -0.075800
      8 CAN         -2.1780     0.0080     1.2120 ce         1 0D1       0.014600
      9 CAM         -2.8480     1.0590     1.7090 c2         1 0D1      -0.056200
     10 ClD         -1.9770     2.4180     2.3480 cl         1 0D1       0.009600
     11 ClC         -4.5830     1.0600     1.7140 cl         1 0D1       0.009600
     12 CAR         -2.9220    -1.1540     0.6670 ca         1 0D1      -0.075800
     13 CAK         -2.8320    -2.3960     1.2920 ca         1 0D1      -0.061500
     14 CAG         -3.5250    -3.4750     0.7820 ca         1 0D1      -0.138750
     15 CAP         -4.3110    -3.3230    -0.3530 ca         1 0D1       0.131100
     16 OAB         -4.9920    -4.3870    -0.8520 oh         1 0D1      -0.501100
     17 CAH         -4.4020    -2.0870    -0.9780 ca         1 0D1      -0.138750
     18 CAL         -3.7150    -1.0040    -0.4700 ca         1 0D1      -0.061500
     19 H1          -0.5420     0.0020    -0.9380 ha         1 0D1       0.111000
     20 H2           1.9200    -0.0050    -0.9380 ha         1 0D1       0.115750
     21 H3           3.7490     0.8870     1.1960 ho         1 0D1       0.404000
     22 H4           1.9310    -0.0010     3.3410 ha         1 0D1       0.115750
     23 H5          -0.5310     0.0050     3.3540 ha         1 0D1       0.111000
     24 H6          -2.2190    -2.5150     2.1780 ha         1 0D1       0.111000
     25 H7          -3.4560    -4.4410     1.2670 ha         1 0D1       0.115750
     26 H8          -4.4530    -4.8400    -1.4780 ho         1 0D1       0.404000
     27 H9          -5.0170    -1.9710    -1.8620 ha         1 0D1       0.115750
     28 H10         -3.7860    -0.0390    -0.9580 ha         1 0D1       0.111000
@<TRIPOS>BOND
     1     1     2 ar  
     2     1     7 ar  
     3     1    19 1   
     4     2     3 ar  
     5     2    20 1   
     6     3     4 1   
     7     3     5 ar  
     8     4    21 1   
     9     5     6 ar  
    10     5    22 1   
    11     6     7 ar  
    12     6    23 1   
    13     7     8 1   
    14     8     9 2   
    15     8    12 1   
    16     9    10 1   
    17     9    11 1   
    18    12    13 ar  
    19    12    18 ar  
    20    13    14 ar  
    21    13    24 1   
    22    14    15 ar  
    23    14    25 1   
    24    15    16 1   
    25    15    17 ar  
    26    16    26 1   
    27    17    18 ar  
    28    17    27 1   
    29    18    28 1   
@<TRIPOS>SUBSTRUCTURE
     1 0D1         1 TEMP              0 ****  ****    0 ROOT
