@<TRIPOS>MOLECULE
0D1
   28    29     1     0     0
SMALL
bcc


@<TRIPOS>ATOM
      1 CAI          0.0340     0.4160     0.0730 ca         1 0D1      -0.068000
      2 CAE          1.4230     0.4360     0.1550 ca         1 0D1      -0.188500
      3 CAO          2.0480     0.0010     1.3330 ca         1 0D1       0.134100
      4 OAA          3.4140    -0.0130     1.4880 oh         1 0D1      -0.495100
      5 CAF          1.2880    -0.4470     2.4270 ca         1 0D1      -0.188500
      6 CAJ         -0.0980    -0.4530     2.3310 ca         1 0D1      -0.068000
      7 CAQ         -0.7360    -0.0270     1.1560 ca         1 0D1      -0.100800
      8 CAN         -2.2020    -0.0300     1.0820 ce         1 0D1       0.023600
      9 CAM         -2.8740    -0.7610     0.1660 c2         1 0D1       0.072800
     10 ClD         -2.1000    -1.7790    -0.9520 cl         1 0D1      -0.067400
     11 ClC         -4.5680    -0.7400     0.0320 cl         1 0D1      -0.067400
     12 CAR         -2.8890     0.8120     2.0680 ca         1 0D1      -0.100800
     13 CAK         -3.7690     0.2480     3.0000 ca         1 0D1      -0.068000
     14 CAG         -4.4040     1.0480     3.9460 ca         1 0D1      -0.188500
     15 CAP         -4.1580     2.4290     3.9540 ca         1 0D1       0.134100
     16 OAB         -4.7500     3.2840     4.8540 oh         1 0D1      -0.495100
     17 CAH         -3.2780     3.0080     3.0250 ca         1 0D1      -0.188500
     18 CAL         -2.6470     2.1940     2.0920 ca         1 0D1      -0.068000
     19 H1          -0.4620     0.7510    -0.8510 ha         1 0D1       0.141500
     20 H2           2.0240     0.7860    -0.6960 ha         1 0D1       0.145500
     21 H3           3.8120     0.3110     0.6660 ho         1 0D1       0.421000
     22 H4           1.7980    -0.7830     3.3410 ha         1 0D1       0.145500
     23 H5          -0.7030    -0.7950     3.1840 ha         1 0D1       0.141500
     24 H6          -3.9630    -0.8350     2.9850 ha         1 0D1       0.141500
     25 H7          -5.0930     0.6030     4.6770 ha         1 0D1       0.145500
     26 H8          -5.3310     2.7610     5.4260 ho         1 0D1       0.421000
     27 H9          -3.0990     4.0930     3.0490 ha         1 0D1       0.145500
     28 H10         -1.9500     2.6360     1.3640 ha         1 0D1       0.141500
@<TRIPOS>BOND
     1     1     2 ar  
     2     1     7 ar  
     3     1    19 1   
     4     2     3 ar  
     5     2    20 1   
     6     3     4 1   
     7     3     5 ar  
     8     4    21 1   
     9     5     6 ar  
    10     5    22 1   
    11     6     7 ar  
    12     6    23 1   
    13     7     8 1   
    14     8     9 2   
    15     8    12 1   
    16     9    10 1   
    17     9    11 1   
    18    12    13 ar  
    19    12    18 ar  
    20    13    14 ar  
    21    13    24 1   
    22    14    15 ar  
    23    14    25 1   
    24    15    16 1   
    25    15    17 ar  
    26    16    26 1   
    27    17    18 ar  
    28    17    27 1   
    29    18    28 1   
@<TRIPOS>SUBSTRUCTURE
     1 0D1         1 TEMP              0 ****  ****    0 ROOT
