@<TRIPOS>MOLECULE
molecule
   40    43     1     0     0
SMALL
bcc


@<TRIPOS>ATOM
      1 O20          0.0000     0.0000     0.0000 o          1 0D2      -0.586000
      2 C19          1.2120     0.0000     0.0000 c          1 0D2       0.724500
      3 N16          2.0260     0.0000     1.0750 ns         1 0D2      -0.575000
      4 C18          2.1280    -0.0040    -1.2080 c3         1 0D2       0.075700
      5 N17          3.4780    -0.0020    -0.6180 ns         1 0D2      -0.582900
      6 C15          3.3150    -0.0050     0.7170 c          1 0D2       0.816500
      7 O14          4.2350    -0.0060     1.5100 o          1 0D2      -0.637500
      8 C21          1.9110     1.2320    -2.0420 ca         1 0D2      -0.127300
      9 C26          0.6280     1.6320    -2.3640 ca         1 0D2      -0.101500
     10 C25          0.4300     2.7660    -3.1290 ca         1 0D2      -0.126000
     11 C24          1.5150     3.4990    -3.5720 ca         1 0D2      -0.110500
     12 C23          2.7970     3.0990    -3.2510 ca         1 0D2      -0.126000
     13 C22          2.9960     1.9670    -2.4810 ca         1 0D2      -0.101500
     14 C5           1.9050    -1.2640    -2.0460 c3         1 0D2       0.075700
     15 N4           0.5290    -1.3020    -2.5710 ns         1 0D2      -0.582900
     16 C3           0.6280    -1.2900    -3.9120 c          1 0D2       0.816500
     17 O13         -0.3290    -1.3130    -4.6600 o          1 0D2      -0.637500
     18 C1           2.7620    -1.2310    -3.2970 c          1 0D2       0.724500
     19 O12          3.9730    -1.1950    -3.3550 o          1 0D2      -0.586000
     20 N2           1.8980    -1.2490    -4.3310 ns         1 0D2      -0.575000
     21 C6           2.1980    -2.4990    -1.2330 ca         1 0D2      -0.127300
     22 C7           1.1590    -3.3080    -0.8090 ca         1 0D2      -0.101500
     23 C8           1.4280    -4.4410    -0.0630 ca         1 0D2      -0.126000
     24 C9           2.7320    -4.7640     0.2600 ca         1 0D2      -0.110500
     25 C10          3.7700    -3.9550    -0.1660 ca         1 0D2      -0.126000
     26 C11          3.5020    -2.8260    -0.9170 ca         1 0D2      -0.101500
     27 H1           1.7050    -0.0010     2.0230 hn         1 0D2       0.368500
     28 H2           4.3470    -0.0040    -1.1140 hn         1 0D2       0.385000
     29 H3          -0.2220     1.0570    -2.0160 ha         1 0D2       0.145000
     30 H4          -0.5760     3.0800    -3.3820 ha         1 0D2       0.139000
     31 H5           1.3600     4.3870    -4.1740 ha         1 0D2       0.135500
     32 H6           3.6470     3.6750    -3.5970 ha         1 0D2       0.139000
     33 H7           4.0010     1.6530    -2.2280 ha         1 0D2       0.145000
     34 H8          -0.3150    -1.3350    -2.0340 hn         1 0D2       0.385000
     35 H9           2.1720    -1.2340    -5.2930 hn         1 0D2       0.368500
     36 H10          0.1370    -3.0550    -1.0620 ha         1 0D2       0.145000
     37 H11          0.6150    -5.0750     0.2700 ha         1 0D2       0.139000
     38 H12          2.9410    -5.6500     0.8460 ha         1 0D2       0.135500
     39 H13          4.7930    -4.2090     0.0840 ha         1 0D2       0.139000
     40 H14          4.3150    -2.1920    -1.2500 ha         1 0D2       0.145000
@<TRIPOS>BOND
     1    24    25 ar  
     2    24    23 ar  
     3    25    26 ar  
     4    23    22 ar  
     5    26    21 ar  
     6    22    21 ar  
     7    21    14 1   
     8     7     6 2   
     9    19    18 2   
    10    18    14 1   
    11    18    20 1   
    12    14    15 1   
    13    14     4 1   
    14     6     3 1   
    15     6     5 1   
    16     3     2 1   
    17     5     4 1   
    18    20    16 1   
    19    15    16 1   
    20    16    17 2   
    21     2     4 1   
    22     2     1 2   
    23     4     8 1   
    24     8    13 ar  
    25     8     9 ar  
    26    13    12 ar  
    27     9    10 ar  
    28    12    11 ar  
    29    10    11 ar  
    30     3    27 1   
    31     5    28 1   
    32     9    29 1   
    33    10    30 1   
    34    11    31 1   
    35    12    32 1   
    36    13    33 1   
    37    15    34 1   
    38    20    35 1   
    39    22    36 1   
    40    23    37 1   
    41    24    38 1   
    42    25    39 1   
    43    26    40 1   
@<TRIPOS>SUBSTRUCTURE
     1 0D2         1 TEMP              0 ****  ****    0 ROOT
