@<TRIPOS>MOLECULE
0D2
   40    43     1     0     0
SMALL
bcc


@<TRIPOS>ATOM
      1 O20         -0.2120    -0.0930    -0.0620 o          1 0D2      -0.599500
      2 C19          1.0210    -0.0540    -0.0020 c          1 0D2       0.709500
      3 N16          1.7800     0.0040     1.1660 ns         1 0D2      -0.599500
      4 C18          2.0310    -0.1040    -1.2100 c3         1 0D2       0.067700
      5 N17          3.3460    -0.0760    -0.5450 ns         1 0D2      -0.520900
      6 C15          3.1720    -0.0830     0.8640 c          1 0D2       0.798500
      7 O14          4.0720    -0.1090     1.7150 o          1 0D2      -0.590500
      8 C21          1.8450     1.0840    -2.1280 ca         1 0D2      -0.119300
      9 C26          0.5970     1.7030    -2.2680 ca         1 0D2      -0.110000
     10 C25          0.4450     2.7980    -3.1190 ca         1 0D2      -0.129500
     11 C24          1.5350     3.2900    -3.8350 ca         1 0D2      -0.109000
     12 C23          2.7800     2.6760    -3.7030 ca         1 0D2      -0.129500
     13 C22          2.9360     1.5790    -2.8580 ca         1 0D2      -0.110000
     14 C5           1.7790    -1.4500    -1.9950 c3         1 0D2       0.067700
     15 N4           0.4650    -1.4780    -2.6590 ns         1 0D2      -0.520900
     16 C3           0.6380    -1.4710    -4.0680 c          1 0D2       0.798500
     17 O13         -0.2620    -1.4450    -4.9190 o          1 0D2      -0.590500
     18 C1           2.7900    -1.5000    -3.2020 c          1 0D2       0.709500
     19 O12          4.0220    -1.4620    -3.1420 o          1 0D2      -0.599500
     20 N2           2.0300    -1.5580    -4.3700 ns         1 0D2      -0.599500
     21 C6           1.9650    -2.6380    -1.0760 ca         1 0D2      -0.119300
     22 C7           0.8740    -3.1330    -0.3460 ca         1 0D2      -0.110000
     23 C8           1.0300    -4.2310     0.4990 ca         1 0D2      -0.129500
     24 C9           2.2750    -4.8440     0.6310 ca         1 0D2      -0.109000
     25 C10          3.3650    -4.3520    -0.0860 ca         1 0D2      -0.129500
     26 C11          3.2130    -3.2570    -0.9360 ca         1 0D2      -0.110000
     27 H1           1.4260     0.0650     2.0870 hn         1 0D2       0.364500
     28 H2           4.0860    -0.6120    -0.9430 hn         1 0D2       0.348500
     29 H3          -0.2820     1.3440    -1.7090 ha         1 0D2       0.153500
     30 H4          -0.5420     3.2730    -3.2190 ha         1 0D2       0.141500
     31 H5           1.4130     4.1570    -4.5010 ha         1 0D2       0.139000
     32 H6           3.6460     3.0570    -4.2650 ha         1 0D2       0.141500
     33 H7           3.9280     1.1030    -2.7790 ha         1 0D2       0.153500
     34 H8          -0.2750    -0.9420    -2.2620 hn         1 0D2       0.348500
     35 H9           2.3840    -1.6200    -5.2910 hn         1 0D2       0.364500
     36 H10         -0.1180    -2.6570    -0.4250 ha         1 0D2       0.153500
     37 H11          0.1640    -4.6110     1.0600 ha         1 0D2       0.141500
     38 H12          2.3970    -5.7110     1.2970 ha         1 0D2       0.139000
     39 H13          4.3520    -4.8270     0.0150 ha         1 0D2       0.141500
     40 H14          4.0930    -2.8980    -1.4950 ha         1 0D2       0.153500
@<TRIPOS>BOND
     1     1     2 2   
     2     2     3 1   
     3     2     4 1   
     4     3     6 1   
     5     3    27 1   
     6     4     5 1   
     7     4     8 1   
     8     4    14 1   
     9     5     6 1   
    10     5    28 1   
    11     6     7 2   
    12     8     9 ar  
    13     8    13 ar  
    14     9    10 ar  
    15     9    29 1   
    16    10    11 ar  
    17    10    30 1   
    18    11    12 ar  
    19    11    31 1   
    20    12    13 ar  
    21    12    32 1   
    22    13    33 1   
    23    14    15 1   
    24    14    18 1   
    25    14    21 1   
    26    15    16 1   
    27    15    34 1   
    28    16    17 2   
    29    16    20 1   
    30    18    19 2   
    31    18    20 1   
    32    20    35 1   
    33    21    22 ar  
    34    21    26 ar  
    35    22    23 ar  
    36    22    36 1   
    37    23    24 ar  
    38    23    37 1   
    39    24    25 ar  
    40    24    38 1   
    41    25    26 ar  
    42    25    39 1   
    43    26    40 1   
@<TRIPOS>SUBSTRUCTURE
     1 0D2         1 TEMP              0 ****  ****    0 ROOT
