@<TRIPOS>MOLECULE
0D8
   15    14     1     0     0
SMALL
bcc


@<TRIPOS>ATOM
      1 OH           0.2660    -0.6680     0.2490 oh         1 0D8      -0.668800
      2 N3           1.5780    -2.1740     2.1530 nz         1 0D8      -0.838600
      3 CA3          2.7110    -1.2850     1.7610 c3         1 0D8       0.111800
      4 C7           2.2510     0.0930     1.3100 c3         1 0D8      -0.120400
      5 C8           1.4590     0.0700     0.0130 c3         1 0D8       0.118400
      6 H3           1.0270    -1.7320     2.8960 hn         1 0D8       0.466467
      7 HA21         3.3950    -1.1850     2.6540 hx         1 0D8       0.109200
      8 HA3          3.2710    -1.7980     0.9260 hx         1 0D8       0.109200
      9 H14          1.2160     1.1220    -0.2960 h1         1 0D8       0.064700
     10 H24          2.0420    -0.4310    -0.8060 h1         1 0D8       0.064700
     11 H89          1.6440     0.5890     2.1140 hc         1 0D8       0.098700
     12 H99          3.1750     0.7150     1.1490 hc         1 0D8       0.098700
     13 H2          -0.3650    -0.4400    -0.4440 ho         1 0D8       0.453000
     14 H1           1.9290    -3.0770     2.4790 hn         1 0D8       0.466467
     15 H33          0.9540    -2.3150     1.3420 hn         1 0D8       0.466467
@<TRIPOS>BOND
     1     1     5 1   
     2     1    13 1   
     3     2     3 1   
     4     2     6 1   
     5     2    14 1   
     6     2    15 1   
     7     3     4 1   
     8     3     7 1   
     9     3     8 1   
    10     4     5 1   
    11     4    11 1   
    12     4    12 1   
    13     5     9 1   
    14     5    10 1   
@<TRIPOS>SUBSTRUCTURE
     1 0D8         1 TEMP              0 ****  ****    0 ROOT
