@<TRIPOS>MOLECULE
0D8
   15    14     1     0     0
SMALL
bcc


@<TRIPOS>ATOM
      1 OH           0.0000     0.0000     0.0000 oh         1 0D8      -0.579800
      2 N3           3.9590    -0.0010     2.8280 nz         1 0D8       0.087400
      3 CA3          3.4690    -0.0010     1.4420 c3         1 0D8      -0.048200
      4 C7           1.9390     0.0000     1.4430 c3         1 0D8      -0.049400
      5 C8           1.4290     0.0000     0.0000 c3         1 0D8       0.244400
      6 H3           3.6250    -0.8190     3.2990 hn         1 0D8       0.224800
      7 HA21         3.8300    -0.8850     0.9310 hx         1 0D8       0.084700
      8 HA3          3.8300     0.8840     0.9320 hx         1 0D8       0.084700
      9 H14          1.7910    -0.9210    -0.4410 h1         1 0D8      -0.003300
     10 H24          1.7910     0.8430    -0.5770 h1         1 0D8      -0.003300
     11 H89          1.5780     0.8850     1.9530 hc         1 0D8       0.043700
     12 H99          1.5770    -0.8840     1.9530 hc         1 0D8       0.043700
     13 H2          -0.3140     0.0000    -0.8890 ho         1 0D8       0.419000
     14 H1           4.9600    -0.0010     2.8280 hn         1 0D8       0.224800
     15 H33          3.6250     0.8160     3.3000 hn         1 0D8       0.224800
@<TRIPOS>BOND
     1     1     5 1   
     2     1    13 1   
     3     2     3 1   
     4     2     6 1   
     5     2    14 1   
     6     2    15 1   
     7     3     4 1   
     8     3     7 1   
     9     3     8 1   
    10     4     5 1   
    11     4    11 1   
    12     4    12 1   
    13     5     9 1   
    14     5    10 1   
@<TRIPOS>SUBSTRUCTURE
     1 0D8         1 TEMP              0 ****  ****    0 ROOT
