@<TRIPOS>MOLECULE
molecule
   28    30     1     0     0
SMALL
bcc


@<TRIPOS>ATOM
      1 O1           0.0000     0.0000     0.0000 o          1 0DF      -0.652500
      2 C3           1.2170     0.0000     0.0000 c          1 0DF       0.805500
      3 N1           1.9920     0.0000     1.1010 n          1 0DF      -0.359000
      4 C7           1.5160    -0.0010     2.4870 c3         1 0DF       0.116300
      5 C2           3.3240    -0.0010     0.6950 ca         1 0DF      -0.115700
      6 C6           4.5300    -0.0010     1.3760 ca         1 0DF      -0.088000
      7 C5           5.7110    -0.0020     0.6260 cp         1 0DF      -0.155300
      8 C4           5.6290    -0.0000    -0.7640 ca         1 0DF       0.437200
      9 N3           4.4630     0.0000    -1.3770 nb         1 0DF      -0.690000
     10 C1           3.3220     0.0010    -0.7040 ca         1 0DF       0.488200
     11 N2           1.9910    -0.0050    -1.1000 ns         1 0DF      -0.520400
     12 C8           7.0310    -0.0010     1.3040 cp         1 0DF      -0.031000
     13 C13          7.1030    -0.0070     2.6960 ca         1 0DF      -0.119500
     14 C12          8.3340    -0.0080     3.3190 ca         1 0DF      -0.123500
     15 C11          9.4950    -0.0030     2.5670 ca         1 0DF      -0.124000
     16 C10          9.4290     0.0030     1.1850 ca         1 0DF      -0.123500
     17 C9           8.2020    -0.0020     0.5500 ca         1 0DF      -0.119500
     18 H1           1.8800    -0.8870     2.9930 h1         1 0DF       0.054367
     19 H2           0.4330     0.0010     2.4970 h1         1 0DF       0.054367
     20 H3           1.8830     0.8820     2.9960 h1         1 0DF       0.054367
     21 H4           4.5570    -0.0020     2.4590 ha         1 0DF       0.146000
     22 H5           6.5400    -0.0010    -1.3510 h4         1 0DF       0.034100
     23 H6           1.6630    -0.0120    -2.0450 hn         1 0DF       0.370500
     24 H7           6.1960    -0.0110     3.2870 ha         1 0DF       0.131500
     25 H8           8.3920    -0.0130     4.4010 ha         1 0DF       0.132500
     26 H9          10.4590    -0.0020     3.0610 ha         1 0DF       0.132000
     27 H10         10.3400     0.0050     0.6000 ha         1 0DF       0.132500
     28 H11          8.1520     0.0030    -0.5320 ha         1 0DF       0.131500
@<TRIPOS>BOND
     1     4     3 1   
     2     1     2 2   
     3     3     2 1   
     4     3     5 1   
     5     2    11 1   
     6     5     6 ar  
     7     5    10 ar  
     8    11    10 1   
     9     6     7 ar  
    10    10     9 ar  
    11    13    14 ar  
    12    13    12 ar  
    13     7    12 1   
    14     7     8 ar  
    15     9     8 ar  
    16    14    15 ar  
    17    12    17 ar  
    18    15    16 ar  
    19    17    16 ar  
    20     4    18 1   
    21     4    19 1   
    22     4    20 1   
    23     6    21 1   
    24     8    22 1   
    25    11    23 1   
    26    13    24 1   
    27    14    25 1   
    28    15    26 1   
    29    16    27 1   
    30    17    28 1   
@<TRIPOS>SUBSTRUCTURE
     1 0DF         1 TEMP              0 ****  ****    0 ROOT
