@<TRIPOS>MOLECULE
0DF
   28    30     1     0     0
SMALL
bcc


@<TRIPOS>ATOM
      1 O1          -0.1110     0.1360     0.0310 o          1 0DF      -0.615500
      2 C3           1.1310     0.1230     0.0200 c          1 0DF       0.788500
      3 N1           1.9890     0.1690     1.1740 n          1 0DF      -0.331000
      4 C7           1.5550    -0.2860     2.4570 c3         1 0DF       0.082300
      5 C2           3.3180     0.0590     0.7090 ca         1 0DF      -0.122700
      6 C6           4.5420     0.0050     1.3580 ca         1 0DF      -0.078000
      7 C5           5.6990    -0.0350     0.5560 cp         1 0DF      -0.151300
      8 C4           5.5670    -0.0210    -0.8500 ca         1 0DF       0.406200
      9 N3           4.4000     0.0280    -1.5260 nb         1 0DF      -0.657000
     10 C1           3.2920     0.0710    -0.7560 ca         1 0DF       0.478200
     11 N2           1.9400     0.1420    -1.1490 ns         1 0DF      -0.536400
     12 C8           7.0210    -0.0890     1.1690 cp         1 0DF      -0.035000
     13 C13          7.2470    -0.8850     2.3020 ca         1 0DF      -0.119000
     14 C12          8.5120    -0.9370     2.8840 ca         1 0DF      -0.128000
     15 C11          9.5630    -0.1960     2.3450 ca         1 0DF      -0.124000
     16 C10          9.3460     0.5990     1.2190 ca         1 0DF      -0.128000
     17 C9           8.0840     0.6530     0.6320 ca         1 0DF      -0.119000
     18 H1           2.1300     0.2680     3.2460 h1         1 0DF       0.055700
     19 H2           0.4580    -0.0640     2.5610 h1         1 0DF       0.055700
     20 H3           1.7220    -1.3890     2.5920 h1         1 0DF       0.055700
     21 H4           4.6150     0.0020     2.4540 ha         1 0DF       0.152000
     22 H5           6.4660    -0.0610    -1.4940 h4         1 0DF       0.032100
     23 H6           1.5970     0.0590    -2.0710 hn         1 0DF       0.365500
     24 H7           6.4230    -1.4770     2.7260 ha         1 0DF       0.134000
     25 H8           8.6800    -1.5660     3.7700 ha         1 0DF       0.134500
     26 H9          10.5600    -0.2370     2.8060 ha         1 0DF       0.134000
     27 H10         10.1720     1.1860     0.7920 ha         1 0DF       0.134500
     28 H11          7.9160     1.2870    -0.2520 ha         1 0DF       0.134000
@<TRIPOS>BOND
     1     1     2 2   
     2     2     3 1   
     3     2    11 1   
     4     3     4 1   
     5     3     5 1   
     6     4    18 1   
     7     4    19 1   
     8     4    20 1   
     9     5     6 ar  
    10     5    10 ar  
    11     6     7 ar  
    12     6    21 1   
    13     7     8 ar  
    14     7    12 1   
    15     8     9 ar  
    16     8    22 1   
    17     9    10 ar  
    18    10    11 1   
    19    11    23 1   
    20    12    13 ar  
    21    12    17 ar  
    22    13    14 ar  
    23    13    24 1   
    24    14    15 ar  
    25    14    25 1   
    26    15    16 ar  
    27    15    26 1   
    28    16    17 ar  
    29    16    27 1   
    30    17    28 1   
@<TRIPOS>SUBSTRUCTURE
     1 0DF         1 TEMP              0 ****  ****    0 ROOT
