@<TRIPOS>MOLECULE
0DI
   49    51     1     0     0
SMALL
bcc


@<TRIPOS>ATOM
      1 C1           0.1200    -0.2040    -0.0930 c3         1 0DI       0.081500
      2 F1           1.5280    -1.8590    -5.8080 f          1 0DI      -0.120900
      3 N1           1.5500    -0.0910    -0.1420 n          1 0DI      -0.477800
      4 O1           0.3040    -1.7870     4.3340 o          1 0DI      -0.620100
      5 Cl1         -0.3040    -6.1390     6.4280 cl         1 0DI      -0.039400
      6 C2          -0.3770    -1.3890     0.7800 c3         1 0DI       0.056500
      7 F2           0.5310     2.0300    -2.0440 f          1 0DI      -0.130900
      8 N2           0.2930    -1.4730     2.0590 n          1 0DI      -0.424800
      9 O2           3.5250    -0.3330    -1.2620 o          1 0DI      -0.557100
     10 C3           1.7460    -1.3440     2.0100 c3         1 0DI       0.056500
     11 N3          -2.3140    -1.6590     4.7460 nz         1 0DI      -0.829600
     12 C4           2.2100    -0.1560     1.1400 c3         1 0DI       0.081500
     13 C5          -0.3240    -1.6850     3.2540 c          1 0DI       0.640100
     14 C6          -1.8730    -1.8130     3.3170 c3         1 0DI       0.047500
     15 C7          -2.3460    -3.1500     2.7250 c3         1 0DI      -0.051100
     16 C8          -2.5160    -4.2360     3.7290 ca         1 0DI      -0.158300
     17 C9          -1.4440    -4.6220     4.5440 ca         1 0DI      -0.156000
     18 C10         -1.6000    -5.6820     5.4410 ca         1 0DI       0.023400
     19 C11         -2.8190    -6.3680     5.5230 ca         1 0DI      -0.095000
     20 C12         -3.8790    -5.9830     4.7040 ca         1 0DI      -0.105000
     21 C13         -3.7330    -4.9210     3.8110 ca         1 0DI      -0.121000
     22 C14          2.2940    -0.1740    -1.3220 c          1 0DI       0.685700
     23 C15          1.6000    -0.0410    -2.6350 ca         1 0DI      -0.160600
     24 C16          0.7890     1.0660    -2.9590 ca         1 0DI       0.133900
     25 C17          0.2390     1.1820    -4.2520 ca         1 0DI      -0.143000
     26 C18          0.4830     0.2050    -5.2050 ca         1 0DI      -0.116000
     27 C19          1.2910    -0.9030    -4.8810 ca         1 0DI       0.118900
     28 C20          1.8570    -1.0170    -3.6000 ca         1 0DI      -0.106000
     29 H1          -0.2990     0.7570     0.3240 h1         1 0DI       0.079450
     30 H1A         -0.3050    -0.3510    -1.1260 h1         1 0DI       0.079450
     31 H2          -0.1930    -2.3560     0.2270 h1         1 0DI       0.073200
     32 H2A         -1.4870    -1.2660     0.9090 h1         1 0DI       0.073200
     33 H3           2.1510    -1.1990     3.0520 h1         1 0DI       0.073200
     34 H3A          2.1620    -2.3070     1.5950 h1         1 0DI       0.073200
     35 HN3         -3.2670    -2.0150     4.8530 hn         1 0DI       0.472467
     36 HN3A        -1.6720    -2.2120     5.3430 hn         1 0DI       0.472467
     37 H4           3.3260    -0.2540     0.9970 h1         1 0DI       0.079450
     38 H4A          2.0050     0.8070     1.6900 h1         1 0DI       0.079450
     39 H6          -2.3460    -0.9580     2.7460 hx         1 0DI       0.115700
     40 H7          -1.5990    -3.4820     1.9500 hc         1 0DI       0.094200
     41 H7A         -3.3180    -2.9710     2.1880 hc         1 0DI       0.094200
     42 H9          -0.4680    -4.1110     4.4580 ha         1 0DI       0.163000
     43 H11         -2.9360    -7.2130     6.2230 ha         1 0DI       0.173000
     44 H12         -4.8360    -6.5280     4.7560 ha         1 0DI       0.163000
     45 H13         -4.5740    -4.6420     3.1570 ha         1 0DI       0.146000
     46 H17         -0.3770     2.0620    -4.4970 ha         1 0DI       0.167000
     47 H18          0.0590     0.2920    -6.2180 ha         1 0DI       0.169000
     48 H20          2.5230    -1.8640    -3.3660 ha         1 0DI       0.174000
     49 H33         -2.2590    -0.6780     5.0290 hn         1 0DI       0.472467
@<TRIPOS>BOND
     1     1     3 1   
     2     1     6 1   
     3     1    29 1   
     4     1    30 1   
     5     2    27 1   
     6     3    12 1   
     7     3    22 1   
     8     4    13 2   
     9     5    18 1   
    10     6     8 1   
    11     6    31 1   
    12     6    32 1   
    13     7    24 1   
    14     8    10 1   
    15     8    13 1   
    16     9    22 2   
    17    10    12 1   
    18    10    33 1   
    19    10    34 1   
    20    11    14 1   
    21    11    35 1   
    22    11    36 1   
    23    11    49 1   
    24    12    37 1   
    25    12    38 1   
    26    13    14 1   
    27    14    15 1   
    28    14    39 1   
    29    15    16 1   
    30    15    40 1   
    31    15    41 1   
    32    16    17 ar  
    33    16    21 ar  
    34    17    18 ar  
    35    17    42 1   
    36    18    19 ar  
    37    19    20 ar  
    38    19    43 1   
    39    20    21 ar  
    40    20    44 1   
    41    21    45 1   
    42    22    23 1   
    43    23    24 ar  
    44    23    28 ar  
    45    24    25 ar  
    46    25    26 ar  
    47    25    46 1   
    48    26    27 ar  
    49    26    47 1   
    50    27    28 ar  
    51    28    48 1   
@<TRIPOS>SUBSTRUCTURE
     1 0DI         1 TEMP              0 ****  ****    0 ROOT
