@<TRIPOS>MOLECULE
0DI
   49    51     1     0     0
SMALL
bcc


@<TRIPOS>ATOM
      1 C1           0.0000     0.0000     0.0000 c3         1 0DI       0.029000
      2 F1          -1.2220     1.6140    -4.2530 f          1 0DI      -0.115900
      3 N1           1.4690     0.0000     0.0000 n          1 0DI      -0.170800
      4 O1          -1.6810    -1.1890     3.2650 o          1 0DI      -0.644100
      5 Cl1          5.4430    -0.2180     7.0960 cl         1 0DI       0.044600
      6 C2          -0.4910    -1.1920     0.8300 c3         1 0DI       0.013000
      7 F2           2.7290    -1.9940    -3.0730 f          1 0DI      -0.111900
      8 N2           0.2170    -1.1920     2.1170 n          1 0DI      -0.082800
      9 O2           3.3690     0.0730    -1.1490 o          1 0DI      -0.596100
     10 C3           1.6870    -1.1920     2.1170 c3         1 0DI       0.013000
     11 N3          -0.6220    -1.6600     5.6570 nz         1 0DI       0.088400
     12 C4           2.1770     0.0000     1.2870 c3         1 0DI       0.029000
     13 C5          -0.4680    -1.1900     3.2780 c          1 0DI       0.564100
     14 C6           0.2720    -1.1890     4.5900 c3         1 0DI      -0.159500
     15 C7           0.7410     0.2310     4.9100 c3         1 0DI       0.031900
     16 C8           1.5860     0.2130     6.1580 ca         1 0DI      -0.133300
     17 C9           2.9520     0.0290     6.0650 ca         1 0DI      -0.088000
     18 C10          3.7270     0.0120     7.2120 ca         1 0DI      -0.028600
     19 C11          3.1330     0.1790     8.4500 ca         1 0DI      -0.069000
     20 C12          1.7660     0.3620     8.5420 ca         1 0DI      -0.070000
     21 C13          0.9930     0.3840     7.3960 ca         1 0DI      -0.188000
     22 C14          2.1560    -0.0020    -1.1610 c          1 0DI       0.623700
     23 C15          1.4330    -0.0960    -2.4460 ca         1 0DI      -0.168600
     24 C16          1.7540    -1.1030    -3.3600 ca         1 0DI       0.150900
     25 C17          1.0740    -1.1840    -4.5620 ca         1 0DI      -0.103000
     26 C18          0.0770    -0.2740    -4.8580 ca         1 0DI      -0.078000
     27 C19         -0.2460     0.7270    -3.9550 ca         1 0DI       0.100900
     28 C20          0.4210     0.8170    -2.7490 ca         1 0DI      -0.107000
     29 H1          -0.3630    -0.0920    -1.0170 h1         1 0DI       0.050950
     30 H1A         -0.3630     0.9210     0.4390 h1         1 0DI       0.050950
     31 H2          -0.2820    -2.1130     0.3000 h1         1 0DI       0.048200
     32 H2A         -1.5570    -1.0990     1.0020 h1         1 0DI       0.048200
     33 H3           2.0500    -1.0990     3.1340 h1         1 0DI       0.048200
     34 H3A          2.0500    -2.1130     1.6780 h1         1 0DI       0.048200
     35 HN3         -0.0770    -2.0520     6.4000 hn         1 0DI       0.232133
     36 HN3A        -1.2390    -2.3590     5.2910 hn         1 0DI       0.232133
     37 H4           1.9680     0.9220     1.8160 h1         1 0DI       0.050950
     38 H4A          3.2430    -0.0920     1.1140 h1         1 0DI       0.050950
     39 H6           1.1300    -1.8460     4.5210 hx         1 0DI       0.103700
     40 H7          -0.1200     0.8700     5.0660 hc         1 0DI       0.059700
     41 H7A          1.3280     0.6120     4.0830 hc         1 0DI       0.059700
     42 H9           3.4230    -0.0450     5.0930 ha         1 0DI       0.124000
     43 H11          3.7390     0.1620     9.3480 ha         1 0DI       0.133000
     44 H12          1.3060     0.5310     9.5080 ha         1 0DI       0.123000
     45 H13          0.0700     0.8500     7.7200 ha         1 0DI       0.135000
     46 H17          1.3210    -1.9640    -5.2710 ha         1 0DI       0.134000
     47 H18         -0.4530    -0.3420    -5.8000 ha         1 0DI       0.132000
     48 H20          0.2190     1.6430    -2.0790 ha         1 0DI       0.129000
     49 H33         -1.1370    -0.8860     6.0270 hn         1 0DI       0.232133
@<TRIPOS>BOND
     1     1     3 1   
     2     1     6 1   
     3     1    29 1   
     4     1    30 1   
     5     2    27 1   
     6     3    12 1   
     7     3    22 1   
     8     4    13 2   
     9     5    18 1   
    10     6     8 1   
    11     6    31 1   
    12     6    32 1   
    13     7    24 1   
    14     8    10 1   
    15     8    13 1   
    16     9    22 2   
    17    10    12 1   
    18    10    33 1   
    19    10    34 1   
    20    11    14 1   
    21    11    35 1   
    22    11    36 1   
    23    11    49 1   
    24    12    37 1   
    25    12    38 1   
    26    13    14 1   
    27    14    15 1   
    28    14    39 1   
    29    15    16 1   
    30    15    40 1   
    31    15    41 1   
    32    16    17 ar  
    33    16    21 ar  
    34    17    18 ar  
    35    17    42 1   
    36    18    19 ar  
    37    19    20 ar  
    38    19    43 1   
    39    20    21 ar  
    40    20    44 1   
    41    21    45 1   
    42    22    23 1   
    43    23    24 ar  
    44    23    28 ar  
    45    24    25 ar  
    46    25    26 ar  
    47    25    46 1   
    48    26    27 ar  
    49    26    47 1   
    50    27    28 ar  
    51    28    48 1   
@<TRIPOS>SUBSTRUCTURE
     1 0DI         1 TEMP              0 ****  ****    0 ROOT
