@<TRIPOS>MOLECULE
0DJ
   33    35     1     0     0
SMALL
bcc


@<TRIPOS>ATOM
      1 C1           0.0000     0.0000     0.0000 ca         1 0DJ       0.420200
      2 C2           1.3940     0.0000     0.0000 cp         1 0DJ      -0.208300
      3 C3           2.0730     0.0000     1.2210 ca         1 0DJ      -0.035000
      4 C4           1.3240    -0.0020     2.3860 ca         1 0DJ      -0.257700
      5 C5          -0.0730    -0.0020     2.3060 ca         1 0DJ       0.307200
      6 N6          -0.6780    -0.0010     1.1280 nb         1 0DJ      -0.542000
      7 N7           1.6530    -0.0020     3.7390 n          1 0DJ       0.053000
      8 C8           0.5080    -0.0040     4.4500 c          1 0DJ       0.569500
      9 N9          -0.5450    -0.0030     3.6120 ns         1 0DJ      -0.041400
     10 C10          3.0080    -0.0030     4.2940 c3         1 0DJ       0.084300
     11 O11          0.4380    -0.0050     5.6640 o          1 0DJ      -0.674500
     12 C12          2.1460     0.0010    -1.2790 cp         1 0DJ       0.016000
     13 C13          3.5410     0.0010    -1.2700 ca         1 0DJ      -0.030000
     14 C14          4.2430     0.0020    -2.4580 ca         1 0DJ      -0.065000
     15 C15          3.5710     0.0020    -3.6640 ca         1 0DJ      -0.100000
     16 C16          2.1750     0.0030    -3.6880 ca         1 0DJ      -0.228600
     17 C17          1.4620    -0.0040    -2.4900 ca         1 0DJ       0.000000
     18 C18          1.4550     0.0050    -4.9790 c          1 0DJ       0.357700
     19 O19          0.2400     0.0050    -4.9970 o          1 0DJ      -0.429100
     20 N20          2.1470     0.0060    -6.1350 nz         1 0DJ       0.200600
     21 H1          -0.5330     0.0000    -0.9430 h4         1 0DJ      -0.015900
     22 H2           3.1560    -0.0000     1.2560 ha         1 0DJ       0.118000
     23 H3          -1.5080    -0.0040     3.8850 hn         1 0DJ       0.205500
     24 H4           3.5350    -0.8870     3.9580 h1         1 0DJ       0.024367
     25 H5           3.5360     0.8820     3.9590 h1         1 0DJ       0.024367
     26 H6           2.9550    -0.0030     5.3760 h1         1 0DJ       0.024367
     27 H7           4.0750     0.0010    -0.3270 ha         1 0DJ       0.131000
     28 H8           5.3270     0.0020    -2.4450 ha         1 0DJ       0.127000
     29 H9           4.1270     0.0050    -4.5930 ha         1 0DJ       0.081000
     30 H10          0.3790    -0.0030    -2.5020 ha         1 0DJ       0.143000
     31 H11          2.7230     0.8230    -6.1790 hn         1 0DJ       0.246800
     32 H12          2.7220    -0.8110    -6.1810 hn         1 0DJ       0.246800
     33 H203         1.5080     0.0070    -6.9060 hn         1 0DJ       0.246800
@<TRIPOS>BOND
     1     1     2 ar  
     2     1     6 ar  
     3     1    21 1   
     4     2     3 ar  
     5     2    12 1   
     6     3     4 ar  
     7     3    22 1   
     8     4     5 ar  
     9     4     7 1   
    10     5     6 ar  
    11     5     9 1   
    12     7     8 1   
    13     7    10 1   
    14     8     9 1   
    15     8    11 2   
    16     9    23 1   
    17    10    24 1   
    18    10    25 1   
    19    10    26 1   
    20    12    13 ar  
    21    12    17 ar  
    22    13    14 ar  
    23    13    27 1   
    24    14    15 ar  
    25    14    28 1   
    26    15    16 ar  
    27    15    29 1   
    28    16    17 ar  
    29    16    18 1   
    30    17    30 1   
    31    18    19 2   
    32    18    20 1   
    33    20    31 1   
    34    20    32 1   
    35    20    33 1   
@<TRIPOS>SUBSTRUCTURE
     1 0DJ         1 TEMP              0 ****  ****    0 ROOT
