@<TRIPOS>MOLECULE
molecule
   33    35     1     0     0
SMALL
bcc


@<TRIPOS>ATOM
      1 C1           0.0000     0.0000     0.0000 ca         1 0DJ       0.455200
      2 C2           1.3940     0.0000     0.0000 cp         1 0DJ      -0.208300
      3 C3           2.0730     0.0000     1.2210 ca         1 0DJ      -0.075000
      4 C4           1.3240    -0.0020     2.3860 ca         1 0DJ      -0.109700
      5 C5          -0.0730    -0.0020     2.3060 ca         1 0DJ       0.521200
      6 N6          -0.6780    -0.0010     1.1280 nb         1 0DJ      -0.681000
      7 N7           1.6530    -0.0020     3.7390 n          1 0DJ      -0.358000
      8 C8           0.5080    -0.0040     4.4500 c          1 0DJ       0.806500
      9 N9          -0.5450    -0.0030     3.6120 ns         1 0DJ      -0.513400
     10 C10          3.0080    -0.0030     4.2940 c3         1 0DJ       0.112300
     11 O11          0.4380    -0.0050     5.6640 o          1 0DJ      -0.617500
     12 C12          2.1460     0.0010    -1.2790 cp         1 0DJ       0.007000
     13 C13          3.5410     0.0010    -1.2700 ca         1 0DJ      -0.059000
     14 C14          4.2430     0.0020    -2.4580 ca         1 0DJ      -0.101000
     15 C15          3.5710     0.0020    -3.6640 ca         1 0DJ      -0.125000
     16 C16          2.1750     0.0030    -3.6880 ca         1 0DJ      -0.205600
     17 C17          1.4620    -0.0040    -2.4900 ca         1 0DJ      -0.035000
     18 C18          1.4550     0.0050    -4.9790 c          1 0DJ       0.508700
     19 O19          0.2400     0.0050    -4.9970 o          1 0DJ      -0.418100
     20 N20          2.1470     0.0060    -6.1350 nz         1 0DJ      -0.678400
     21 H1          -0.5330     0.0000    -0.9430 h4         1 0DJ       0.028100
     22 H2           3.1560    -0.0000     1.2560 ha         1 0DJ       0.145000
     23 H3          -1.5080    -0.0040     3.8850 hn         1 0DJ       0.380500
     24 H4           3.5350    -0.8870     3.9580 h1         1 0DJ       0.059367
     25 H5           3.5360     0.8820     3.9590 h1         1 0DJ       0.059367
     26 H6           2.9550    -0.0030     5.3760 h1         1 0DJ       0.059367
     27 H7           4.0750     0.0010    -0.3270 ha         1 0DJ       0.164000
     28 H8           5.3270     0.0020    -2.4450 ha         1 0DJ       0.163000
     29 H9           4.1270     0.0050    -4.5930 ha         1 0DJ       0.109000
     30 H10          0.3790    -0.0030    -2.5020 ha         1 0DJ       0.171000
     31 H11          2.7230     0.8230    -6.1790 hn         1 0DJ       0.478133
     32 H12          2.7220    -0.8110    -6.1810 hn         1 0DJ       0.478133
     33 H203         1.5080     0.0070    -6.9060 hn         1 0DJ       0.478133
@<TRIPOS>BOND
     1    19    18 2   
     2    20    18 1   
     3    18    16 1   
     4    16    15 ar  
     5    16    17 ar  
     6    15    14 ar  
     7    17    12 ar  
     8    14    13 ar  
     9    12    13 ar  
    10    12     2 1   
    11     2     3 ar  
    12     2     1 ar  
    13     3     4 ar  
    14     1     6 ar  
    15     6     5 ar  
    16     4     5 ar  
    17     4     7 1   
    18     5     9 1   
    19     7    10 1   
    20     7     8 1   
    21     9     8 1   
    22     8    11 2   
    23     1    21 1   
    24     3    22 1   
    25     9    23 1   
    26    10    24 1   
    27    10    25 1   
    28    10    26 1   
    29    13    27 1   
    30    14    28 1   
    31    15    29 1   
    32    17    30 1   
    33    20    31 1   
    34    20    32 1   
    35    33    20 1   
@<TRIPOS>SUBSTRUCTURE
     1 0DJ         1 TEMP              0 ****  ****    0 ROOT
