@<TRIPOS>MOLECULE
0DJ
   33    35     1     0     0
SMALL
bcc


@<TRIPOS>ATOM
      1 C1          -0.0430    -0.0480     0.0040 ca         1 0DJ       0.426200
      2 C2           1.3670    -0.0900    -0.0050 cp         1 0DJ      -0.213300
      3 C3           2.0680    -0.1820     1.2180 ca         1 0DJ      -0.077000
      4 C4           1.3170    -0.2260     2.3790 ca         1 0DJ      -0.103700
      5 C5          -0.1530    -0.1760     2.2800 ca         1 0DJ       0.513200
      6 N6          -0.8190    -0.0880     1.1080 nb         1 0DJ      -0.652000
      7 N7           1.6560    -0.3660     3.7360 n          1 0DJ      -0.341000
      8 C8           0.4370    -0.3080     4.4970 c          1 0DJ       0.796500
      9 N9          -0.6590    -0.2360     3.5840 ns         1 0DJ      -0.531400
     10 C10          2.9340    -0.0730     4.3000 c3         1 0DJ       0.085300
     11 O11          0.3390    -0.3580     5.7290 o          1 0DJ      -0.579500
     12 C12          2.0930    -0.0480    -1.2660 cp         1 0DJ       0.006000
     13 C13          3.2370    -0.8350    -1.4630 ca         1 0DJ      -0.049000
     14 C14          3.9270    -0.7950    -2.6780 ca         1 0DJ      -0.114000
     15 C15          3.4890     0.0220    -3.7140 ca         1 0DJ      -0.103000
     16 C16          2.3440     0.8160    -3.5310 ca         1 0DJ      -0.202600
     17 C17          1.6510     0.7810    -2.3080 ca         1 0DJ      -0.039000
     18 C18          1.8030     1.7050    -4.5480 c          1 0DJ       0.577700
     19 O19          0.8350     2.4500    -4.5050 o          1 0DJ      -0.417100
     20 N20          2.5230     1.7400    -5.8920 nz         1 0DJ      -0.763400
     21 H1          -0.6120     0.0080    -0.9420 h4         1 0DJ       0.027100
     22 H2           3.1660    -0.2090     1.2420 ha         1 0DJ       0.150000
     23 H3          -1.6110    -0.2000     3.8500 hn         1 0DJ       0.379500
     24 H4           3.7050    -0.7280     3.8110 h1         1 0DJ       0.062033
     25 H5           2.8980    -0.2920     5.4020 h1         1 0DJ       0.062033
     26 H6           3.2170     1.0030     4.1460 h1         1 0DJ       0.062033
     27 H7           3.5910    -1.4980    -0.6550 ha         1 0DJ       0.171000
     28 H8           4.8240    -1.4220    -2.8170 ha         1 0DJ       0.168000
     29 H9           4.0590     0.0220    -4.6540 ha         1 0DJ       0.123000
     30 H10          0.7570     1.4150    -2.1650 ha         1 0DJ       0.175000
     31 H11          2.5260     0.8050    -6.3080 hn         1 0DJ       0.467467
     32 H12          3.4900     2.0480    -5.7590 hn         1 0DJ       0.467467
     33 H203         2.0430     2.3920    -6.5250 hn         1 0DJ       0.467467
@<TRIPOS>BOND
     1     1     2 ar  
     2     1     6 ar  
     3     1    21 1   
     4     2     3 ar  
     5     2    12 1   
     6     3     4 ar  
     7     3    22 1   
     8     4     5 ar  
     9     4     7 1   
    10     5     6 ar  
    11     5     9 1   
    12     7     8 1   
    13     7    10 1   
    14     8     9 1   
    15     8    11 2   
    16     9    23 1   
    17    10    24 1   
    18    10    25 1   
    19    10    26 1   
    20    12    13 ar  
    21    12    17 ar  
    22    13    14 ar  
    23    13    27 1   
    24    14    15 ar  
    25    14    28 1   
    26    15    16 ar  
    27    15    29 1   
    28    16    17 ar  
    29    16    18 1   
    30    17    30 1   
    31    18    19 2   
    32    18    20 1   
    33    20    31 1   
    34    20    32 1   
    35    20    33 1   
@<TRIPOS>SUBSTRUCTURE
     1 0DJ         1 TEMP              0 ****  ****    0 ROOT
