@<TRIPOS>MOLECULE
0DN
   30    31     1     0     0
SMALL
bcc


@<TRIPOS>ATOM
      1 O4          -0.0130    -0.1040     0.2740 o          1 0DN      -0.644500
      2 C6           1.2200    -0.0760     0.0660 c          1 0DN       0.811500
      3 N2           2.1210    -0.0980     1.1380 ns         1 0DN      -0.584500
      4 C7           3.5180    -0.0730     0.9740 c          1 0DN       0.716700
      5 O3           4.2350    -0.1080     1.9880 o          1 0DN      -0.608500
      6 C8           4.0090    -0.0110    -0.4150 cc         1 0DN      -0.252400
      7 C10          5.4710     0.0240    -0.6150 c3         1 0DN      -0.031900
      8 C9           3.1200     0.0100    -1.4460 cd         1 0DN       0.038600
      9 N1           1.7450     0.0200    -1.2540 n          1 0DN      -0.385000
     10 C4           0.8250    -0.0890    -2.3790 c3         1 0DN       0.307500
     11 C3           0.8660     1.1140    -3.3460 c3         1 0DN      -0.152400
     12 C2           1.3530     0.5600    -4.6870 c3         1 0DN       0.116100
     13 O2           0.4420     0.8270    -5.7390 oh         1 0DN      -0.588800
     14 O1           1.1170    -1.2760    -3.1430 os         1 0DN      -0.418600
     15 C1           1.3970    -0.9690    -4.5110 c3         1 0DN       0.102100
     16 C5           2.7310    -1.6110    -4.9180 c3         1 0DN       0.143900
     17 F1           3.8390    -0.8960    -4.5090 f          1 0DN      -0.250300
     18 H1           1.7320    -0.1560     2.0550 hn         1 0DN       0.352500
     19 H2           5.8790     1.0120    -0.2850 hc         1 0DN       0.052367
     20 H3           5.9590    -0.7720     0.0020 hc         1 0DN       0.052367
     21 H4           5.7360    -0.1360    -1.6890 hc         1 0DN       0.052367
     22 H5           3.4450     0.0220    -2.5060 h4         1 0DN       0.178000
     23 H6          -0.2160    -0.2500    -1.9600 h2         1 0DN       0.127700
     24 H7          -0.1680     1.5300    -3.4470 hc         1 0DN       0.080200
     25 H8           1.5360     1.9310    -2.9830 hc         1 0DN       0.080200
     26 H9           2.3680     0.9650    -4.9490 h1         1 0DN       0.063700
     27 H10          0.4310     1.7830    -5.8640 ho         1 0DN       0.411000
     28 H11          0.5760    -1.4550    -5.1130 h1         1 0DN       0.098700
     29 H12          2.7830    -2.6410    -4.4660 h1         1 0DN       0.065700
     30 H13          2.7540    -1.6900    -6.0400 h1         1 0DN       0.065700
@<TRIPOS>BOND
     1     1     2 2   
     2     2     3 1   
     3     2     9 1   
     4     3     4 1   
     5     3    18 1   
     6     4     5 2   
     7     4     6 1   
     8     6     7 1   
     9     6     8 2   
    10     7    19 1   
    11     7    20 1   
    12     7    21 1   
    13     8     9 1   
    14     8    22 1   
    15     9    10 1   
    16    10    11 1   
    17    10    14 1   
    18    10    23 1   
    19    11    12 1   
    20    11    24 1   
    21    11    25 1   
    22    12    13 1   
    23    12    15 1   
    24    12    26 1   
    25    13    27 1   
    26    14    15 1   
    27    15    16 1   
    28    15    28 1   
    29    16    17 1   
    30    16    29 1   
    31    16    30 1   
@<TRIPOS>SUBSTRUCTURE
     1 0DN         1 TEMP              0 ****  ****    0 ROOT
