@<TRIPOS>MOLECULE
molecule
   30    31     1     0     0
SMALL
bcc


@<TRIPOS>ATOM
      1 O4           0.0000     0.0000     0.0000 o          1 0DN      -0.646500
      2 C6           1.2160     0.0000     0.0000 c          1 0DN       0.812500
      3 N2           1.8790     0.0000     1.1710 ns         1 0DN      -0.560500
      4 C7           3.2280     0.0000     1.1870 c          1 0DN       0.707700
      5 O3           3.8290    -0.0010     2.2460 o          1 0DN      -0.617500
      6 C8           3.9380     0.0000    -0.0370 cc         1 0DN      -0.271400
      7 C10          5.4450    -0.0010    -0.0470 c3         1 0DN      -0.013900
      8 C9           3.2460     0.0000    -1.1970 cd         1 0DN       0.030600
      9 N1           1.8790    -0.0050    -1.1710 n          1 0DN      -0.361000
     10 C4           1.1280    -0.0100    -2.4300 c3         1 0DN       0.321500
     11 C3           0.2660    -1.2870    -2.5360 c3         1 0DN      -0.146400
     12 C2          -1.0350    -0.8070    -3.2180 c3         1 0DN       0.119100
     13 O2          -1.2230    -1.4780    -4.4650 oh         1 0DN      -0.601800
     14 O1           0.1790     1.0790    -2.4530 os         1 0DN      -0.386600
     15 C1          -0.8040     0.7040    -3.4430 c3         1 0DN       0.101100
     16 C5          -2.1040     1.4800    -3.2220 c3         1 0DN       0.174900
     17 F1          -1.8830     2.8390    -3.4710 f          1 0DN      -0.238300
     18 H1           1.3700     0.0010     2.0320 hn         1 0DN       0.364500
     19 H2           5.8090     0.8800     0.4680 hc         1 0DN       0.049367
     20 H3           5.8080    -0.8890     0.4550 hc         1 0DN       0.049367
     21 H4           5.7990     0.0070    -1.0700 hc         1 0DN       0.049367
     22 H5           3.7730    -0.0020    -2.1440 h4         1 0DN       0.165000
     23 H6           1.8000     0.0600    -3.2760 h2         1 0DN       0.074700
     24 H7           0.7620    -2.0290    -3.1500 hc         1 0DN       0.079200
     25 H8           0.0520    -1.6820    -1.5500 hc         1 0DN       0.079200
     26 H9          -1.8840    -0.9650    -2.5630 h1         1 0DN       0.060700
     27 H10         -1.8880    -2.1390    -4.3690 ho         1 0DN       0.411000
     28 H11         -0.4180     0.8800    -4.4400 h1         1 0DN       0.076700
     29 H12         -2.8660     1.1090    -3.8960 h1         1 0DN       0.058700
     30 H13         -2.4330     1.3500    -2.1980 h1         1 0DN       0.058700
@<TRIPOS>BOND
     1     5     4 2   
     2     3     4 1   
     3     3     2 1   
     4     1     2 2   
     5     4     6 1   
     6     2     9 1   
     7     6     8 2   
     8     6     7 1   
     9     9     8 1   
    10     9    10 1   
    11    10    14 1   
    12    10    11 1   
    13    14    15 1   
    14    11    12 1   
    15    13    12 1   
    16    15    12 1   
    17    15    16 1   
    18    16    17 1   
    19     3    18 1   
    20     7    19 1   
    21     7    20 1   
    22     7    21 1   
    23     8    22 1   
    24    10    23 1   
    25    11    24 1   
    26    11    25 1   
    27    12    26 1   
    28    13    27 1   
    29    15    28 1   
    30    16    29 1   
    31    16    30 1   
@<TRIPOS>SUBSTRUCTURE
     1 0DN         1 TEMP              0 ****  ****    0 ROOT
