@<TRIPOS>MOLECULE
0DN
   30    31     1     0     0
SMALL
bcc


@<TRIPOS>ATOM
      1 O4           0.0000     0.0000     0.0000 o          1 0DN      -0.695500
      2 C6           1.2160     0.0000     0.0000 c          1 0DN       0.592500
      3 N2           1.8790     0.0000     1.1710 ns         1 0DN      -0.128500
      4 C7           3.2280     0.0000     1.1870 c          1 0DN       0.619700
      5 O3           3.8290    -0.0010     2.2460 o          1 0DN      -0.655500
      6 C8           3.9380     0.0000    -0.0370 cc         1 0DN      -0.272400
      7 C10          5.4450    -0.0010    -0.0470 c3         1 0DN       0.102100
      8 C9           3.2460     0.0000    -1.1970 cd         1 0DN      -0.100400
      9 N1           1.8790    -0.0050    -1.1710 n          1 0DN       0.046000
     10 C4           1.1280    -0.0100    -2.4300 c3         1 0DN       0.239500
     11 C3           0.2660    -1.2870    -2.5360 c3         1 0DN      -0.108400
     12 C2          -1.0350    -0.8070    -3.2180 c3         1 0DN       0.170100
     13 O2          -1.2230    -1.4780    -4.4650 oh         1 0DN      -0.581800
     14 O1           0.1790     1.0790    -2.4530 os         1 0DN      -0.373600
     15 C1          -0.8040     0.7040    -3.4430 c3         1 0DN       0.137100
     16 C5          -2.1040     1.4800    -3.2220 c3         1 0DN       0.212900
     17 F1          -1.8830     2.8390    -3.4710 f          1 0DN      -0.226300
     18 H1           1.3700     0.0010     2.0320 hn         1 0DN       0.207500
     19 H2           5.8090     0.8800     0.4680 hc         1 0DN       0.011033
     20 H3           5.8080    -0.8890     0.4550 hc         1 0DN       0.011033
     21 H4           5.7990     0.0070    -1.0700 hc         1 0DN       0.011033
     22 H5           3.7730    -0.0020    -2.1440 h4         1 0DN       0.137000
     23 H6           1.8000     0.0600    -3.2760 h2         1 0DN       0.035700
     24 H7           0.7620    -2.0290    -3.1500 hc         1 0DN       0.049200
     25 H8           0.0520    -1.6820    -1.5500 hc         1 0DN       0.049200
     26 H9          -1.8840    -0.9650    -2.5630 h1         1 0DN       0.025700
     27 H10         -1.8880    -2.1390    -4.3690 ho         1 0DN       0.397000
     28 H11         -0.4180     0.8800    -4.4400 h1         1 0DN       0.042700
     29 H12         -2.8660     1.1090    -3.8960 h1         1 0DN       0.022700
     30 H13         -2.4330     1.3500    -2.1980 h1         1 0DN       0.022700
@<TRIPOS>BOND
     1     1     2 2   
     2     2     3 1   
     3     2     9 1   
     4     3     4 1   
     5     3    18 1   
     6     4     5 2   
     7     4     6 1   
     8     6     7 1   
     9     6     8 2   
    10     7    19 1   
    11     7    20 1   
    12     7    21 1   
    13     8     9 1   
    14     8    22 1   
    15     9    10 1   
    16    10    11 1   
    17    10    14 1   
    18    10    23 1   
    19    11    12 1   
    20    11    24 1   
    21    11    25 1   
    22    12    13 1   
    23    12    15 1   
    24    12    26 1   
    25    13    27 1   
    26    14    15 1   
    27    15    16 1   
    28    15    28 1   
    29    16    17 1   
    30    16    29 1   
    31    16    30 1   
@<TRIPOS>SUBSTRUCTURE
     1 0DN         1 TEMP              0 ****  ****    0 ROOT
