@<TRIPOS>MOLECULE
molecule
   19    20     1     0     0
SMALL
bcc


@<TRIPOS>ATOM
      1 N25          0.0000     0.0000     0.0000 nv         1 0DQ      -0.878200
      2 C26          1.3890     0.0000     0.0000 cc         1 0DQ       0.153200
      3 C27          2.2360     0.0000     1.0910 cc         1 0DQ       0.269800
      4 N28          3.5220    -0.0010     0.7930 nc         1 0DQ      -0.294000
      5 N29          3.8710    -0.0030    -0.4380 nd         1 0DQ      -0.119100
      6 S30          2.4460    -0.0090    -1.3610 ss         1 0DQ       0.017200
      7 C31          1.7400     0.0010     2.4870 ca         1 0DQ      -0.108500
      8 C32          2.4360    -0.6910     3.4780 ca         1 0DQ      -0.113000
      9 C33          1.9700    -0.6850     4.7770 ca         1 0DQ      -0.130000
     10 C34          0.8130     0.0030     5.0970 ca         1 0DQ      -0.124000
     11 C35          0.1180     0.6910     4.1180 ca         1 0DQ      -0.130000
     12 C36          0.5780     0.6990     2.8170 ca         1 0DQ      -0.113000
     13 H25         -0.5000     0.5160    -0.6960 hn         1 0DQ       0.448800
     14 H26          3.3420    -1.2300     3.2290 ha         1 0DQ       0.140500
     15 H27          2.5090    -1.2220     5.5480 ha         1 0DQ       0.132000
     16 H28          0.4490     0.0020     6.1170 ha         1 0DQ       0.130000
     17 H29         -0.7860     1.2310     4.3740 ha         1 0DQ       0.132000
     18 H30          0.0330     1.2380     2.0520 ha         1 0DQ       0.140500
     19 H2          -0.5000    -0.5020     0.7070 hn         1 0DQ       0.448800
@<TRIPOS>BOND
     1    11    12 ar  
     2    11    10 ar  
     3    12     7 ar  
     4     4     5 2   
     5     4     3 1   
     6     5     6 1   
     7    10     9 ar  
     8     7     3 1   
     9     7     8 ar  
    10     3     2 2   
    11     9     8 ar  
    12     6     2 1   
    13     2     1 1   
    14     1    13 1   
    15     8    14 1   
    16     9    15 1   
    17    10    16 1   
    18    11    17 1   
    19    12    18 1   
    20     1    19 1   
@<TRIPOS>SUBSTRUCTURE
     1 0DQ         1 TEMP              0 ****  ****    0 ROOT
