@<TRIPOS>MOLECULE
0DQ
   19    20     1     0     0
SMALL
bcc


@<TRIPOS>ATOM
      1 N25          0.0490     0.1450     0.1390 nv         1 0DQ      -0.785200
      2 C26          1.3970     0.0080    -0.0340 cc         1 0DQ       0.114200
      3 C27          2.3920     0.0350     0.9770 cd         1 0DQ       0.217800
      4 N28          3.7000    -0.0400     0.4500 nd         1 0DQ      -0.240000
      5 N29          3.7440    -0.1180    -0.7850 nc         1 0DQ      -0.136100
      6 S30          2.2240    -0.1070    -1.5340 ss         1 0DQ       0.041200
      7 C31          2.1400     0.1160     2.4060 ca         1 0DQ      -0.106500
      8 C32          1.2440     1.0670     2.9160 ca         1 0DQ      -0.117500
      9 C33          0.9890     1.1220     4.2850 ca         1 0DQ      -0.131500
     10 C34          1.6290     0.2410     5.1550 ca         1 0DQ      -0.126000
     11 C35          2.5350    -0.6950     4.6540 ca         1 0DQ      -0.131500
     12 C36          2.7930    -0.7590     3.2870 ca         1 0DQ      -0.117500
     13 H25         -0.2740     0.0480     1.0790 hn         1 0DQ       0.417800
     14 H26          0.7640     1.7920     2.2420 ha         1 0DQ       0.142500
     15 H27          0.2860     1.8700     4.6790 ha         1 0DQ       0.134000
     16 H28          1.4270     0.2880     6.2350 ha         1 0DQ       0.133000
     17 H29          3.0510    -1.3830     5.3400 ha         1 0DQ       0.134000
     18 H30          3.5150    -1.4920     2.8950 ha         1 0DQ       0.142500
     19 H2          -0.5260    -0.2870    -0.5490 hn         1 0DQ       0.417800
@<TRIPOS>BOND
     1     1     2 1   
     2     1    13 1   
     3     1    19 1   
     4     2     3 2   
     5     2     6 1   
     6     3     4 1   
     7     3     7 1   
     8     4     5 2   
     9     5     6 1   
    10     7     8 ar  
    11     7    12 ar  
    12     8     9 ar  
    13     8    14 1   
    14     9    10 ar  
    15     9    15 1   
    16    10    11 ar  
    17    10    16 1   
    18    11    12 ar  
    19    11    17 1   
    20    12    18 1   
@<TRIPOS>SUBSTRUCTURE
     1 0DQ         1 TEMP              0 ****  ****    0 ROOT
