@<TRIPOS>MOLECULE
0DU
   54    56     1     0     0
SMALL
bcc


@<TRIPOS>ATOM
      1 C10          0.1110     0.0980    -0.2260 ca         1 0DU      -0.059800
      2 C13          1.3200    -0.2130     2.2930 ca         1 0DU      -0.094300
      3 C15          2.0460    -1.8280     4.0740 c3         1 0DU      -0.050500
      4 C20          1.1630    -5.4650     5.2560 ca         1 0DU       0.073400
      5 C22          1.9800    -6.4940     5.7310 ca         1 0DU      -0.117500
      6 C24          3.3200    -6.3570     3.7190 ca         1 0DU      -0.117500
      7 C02         -1.6650     0.9350    -4.0260 cc         1 0DU       0.080400
      8 C03         -1.1780    -0.3300    -3.7820 cd         1 0DU      -0.243000
      9 C04         -0.6020    -0.6540    -2.5190 cd         1 0DU      -0.053200
     10 C05         -0.1000    -2.0940    -2.3630 c3         1 0DU       0.682100
     11 F06         -0.4300    -2.7060    -1.1800 f          1 0DU      -0.231967
     12 F07          1.2650    -2.2300    -2.4600 f          1 0DU      -0.231967
     13 F08         -0.5770    -2.9660    -3.3140 f          1 0DU      -0.231967
     14 C09         -0.5170     0.2870    -1.5320 cc         1 0DU      -0.083400
     15 C11          1.4590    -0.2760    -0.1260 ca         1 0DU      -0.085500
     16 C12          2.0560    -0.4300     1.1220 ca         1 0DU      -0.138000
     17 C14          1.9640    -0.3750     3.6230 c3         1 0DU      -0.053100
     18 N16          0.6900    -2.4620     4.2130 ny         1 0DU      -0.660800
     19 O18         -0.2770    -3.8490     2.6270 o          1 0DU      -0.432100
     20 C19          1.4270    -4.8650     4.0130 ca         1 0DU      -0.163600
     21 C23          3.0580    -6.9290     4.9620 ca         1 0DU      -0.071000
     22 C25          2.5040    -5.3270     3.2400 ca         1 0DU       0.073400
     23 Cl2          2.8350    -4.6460     1.7240 cl         1 0DU      -0.052400
     24 C27          2.7980    -1.8540     5.4920 c          1 0DU       0.932600
     25 O28          4.0050    -1.5660     5.4470 o          1 0DU      -0.758300
     26 O29          2.0720    -2.1680     6.4730 o          1 0DU      -0.758300
     27 C30         -0.0210     0.1770     2.1940 ca         1 0DU      -0.138000
     28 C31         -0.6200     0.3380     0.9470 ca         1 0DU      -0.085500
     29 C32         -1.0980     1.6310    -1.7620 c          1 0DU       0.688700
     30 O33         -1.1480     2.5200    -0.8900 o          1 0DU      -0.620500
     31 N34         -1.6300     1.9110    -3.0420 n          1 0DU      -0.335000
     32 C35         -2.1570     3.2250    -3.3250 c3         1 0DU       0.057300
     33 C17          0.5590    -3.7740     3.5200 c          1 0DU       0.576700
     34 Cl1         -0.1640    -4.9580     6.1840 cl         1 0DU      -0.052400
     35 C01         -2.2400     1.2620    -5.3660 c3         1 0DU      -0.073900
     36 H15          2.6530    -2.4280     3.3440 hx         1 0DU       0.094700
     37 H03         -1.2290    -1.1000    -4.5660 ha         1 0DU       0.169000
     38 H11          2.0490    -0.4490    -1.0400 ha         1 0DU       0.146500
     39 H12          3.1170    -0.7170     1.1900 ha         1 0DU       0.137500
     40 H14          3.0280    -0.0050     3.5960 hc         1 0DU       0.092700
     41 H14A         1.4250     0.2370     4.3960 hc         1 0DU       0.092700
     42 HN16        -0.0300    -1.8210     3.8640 hn         1 0DU       0.468800
     43 H23          3.7120    -7.7310     5.3430 ha         1 0DU       0.157000
     44 H30         -0.6000     0.3930     3.1040 ha         1 0DU       0.137500
     45 H31         -1.6640     0.6790     0.8760 ha         1 0DU       0.146500
     46 H35         -1.9720     3.9060    -2.4510 h1         1 0DU       0.064033
     47 H35A        -1.6540     3.6500    -4.2350 h1         1 0DU       0.064033
     48 H35B        -3.2620     3.1600    -3.5130 h1         1 0DU       0.064033
     49 H22          1.7790    -6.9480     6.7150 ha         1 0DU       0.167000
     50 H162         0.5670    -2.6050     5.2510 hn         1 0DU       0.468800
     51 H24          4.1730    -6.7080     3.1150 ha         1 0DU       0.167000
     52 H01         -1.6250     2.0470    -5.8740 hc         1 0DU       0.064700
     53 H01A        -2.2510     0.3480    -6.0110 hc         1 0DU       0.064700
     54 H01B        -3.2890     1.6390    -5.2680 hc         1 0DU       0.064700
@<TRIPOS>BOND
     1     1    14 1   
     2     1    15 ar  
     3     1    28 ar  
     4     2    16 ar  
     5     2    17 1   
     6     2    27 ar  
     7     3    17 1   
     8     3    18 1   
     9     3    24 1   
    10     3    36 1   
    11     4     5 ar  
    12     4    20 ar  
    13     4    34 1   
    14     5    21 ar  
    15     5    49 1   
    16     6    21 ar  
    17     6    22 ar  
    18     6    51 1   
    19     7     8 2   
    20     7    31 1   
    21     7    35 1   
    22     8     9 1   
    23     8    37 1   
    24     9    10 1   
    25     9    14 2   
    26    10    11 1   
    27    10    12 1   
    28    10    13 1   
    29    14    29 1   
    30    15    16 ar  
    31    15    38 1   
    32    16    39 1   
    33    17    40 1   
    34    17    41 1   
    35    18    33 1   
    36    18    42 1   
    37    18    50 1   
    38    19    33 2   
    39    20    22 ar  
    40    20    33 1   
    41    21    43 1   
    42    22    23 1   
    43    24    25 1   
    44    24    26 1   
    45    27    28 ar  
    46    27    44 1   
    47    28    45 1   
    48    29    30 2   
    49    29    31 1   
    50    31    32 1   
    51    32    46 1   
    52    32    47 1   
    53    32    48 1   
    54    35    52 1   
    55    35    53 1   
    56    35    54 1   
@<TRIPOS>SUBSTRUCTURE
     1 0DU         1 TEMP              0 ****  ****    0 ROOT
