@<TRIPOS>MOLECULE
0DU
   53    55     1     0     0
SMALL
bcc


@<TRIPOS>ATOM
      1 C10          0.0000     0.0000     0.0000 ca         1 0DU      -0.085800
      2 C13          1.3910    -0.0020     2.3940 ca         1 0DU      -0.050300
      3 C15          2.4030     1.4390     4.1400 c3         1 0DU      -0.097300
      4 C20          5.4400     4.5110     2.4640 ca         1 0DU      -0.019100
      5 C22          6.2730     5.1240     1.5490 ca         1 0DU      -0.124500
      6 C24          4.5840     4.9220    -0.1450 ca         1 0DU      -0.124500
      7 C02         -2.1150     0.0320    -3.6660 cc         1 0DU      -0.130600
      8 C03         -2.2230    -1.0460    -2.8540 cd         1 0DU      -0.175000
      9 C04         -1.5330    -1.0810    -1.6380 cd         1 0DU      -0.144200
     10 C05         -1.6480    -2.2760    -0.7270 c3         1 0DU       0.644100
     11 F06         -0.5100    -2.3570     0.0820 f          1 0DU      -0.206967
     12 F07         -2.7840    -2.1430     0.0780 f          1 0DU      -0.206967
     13 F08         -1.7560    -3.4400    -1.4970 f          1 0DU      -0.206967
     14 C09         -0.7440     0.0010    -1.2810 cc         1 0DU      -0.034400
     15 C11          1.3950     0.0000     0.0000 ca         1 0DU      -0.074500
     16 C12          2.0820     0.0000     1.1970 ca         1 0DU      -0.101000
     17 C14          2.1470    -0.0020     3.6980 c3         1 0DU       0.023900
     18 N16          3.2900     2.0960     3.1780 ns         1 0DU      -0.120900
     19 O18          2.5110     4.1020     3.7250 o          1 0DU      -0.639100
     20 C19          4.1630     4.0980     2.0740 ca         1 0DU      -0.112600
     21 C23          5.8470     5.3280     0.2490 ca         1 0DU      -0.093000
     22 C25          3.7370     4.3140     0.7600 ca         1 0DU      -0.019100
     23 Cl2          2.1530     3.8040     0.2640 cl         1 0DU       0.035600
     24 C27          3.0500     1.4400     5.5020 c          1 0DU       0.976600
     25 O28          4.1410     1.9370     5.6510 o          1 0DU      -0.886800
     26 O29          2.4150     0.8880     6.5470 o          1 0DU      -0.886800
     27 C30          0.0070     0.0090     2.4020 ca         1 0DU      -0.101000
     28 C31         -0.6920     0.0050     1.2120 ca         1 0DU      -0.074500
     29 C32         -0.6600     1.1080    -2.1610 c          1 0DU       0.582700
     30 O33          0.0280     2.0710    -1.8680 o          1 0DU      -0.672500
     31 N34         -1.3380     1.0920    -3.3240 n          1 0DU       0.129000
     32 C35         -1.2420     2.2390    -4.2310 c3         1 0DU       0.021300
     33 H15          1.4620     1.9740     4.1870 h1         1 0DU       0.061700
     34 H24          4.2570     5.0880    -1.1640 ha         1 0DU       0.107000
     35 H03         -2.8480    -1.8820    -3.1450 ha         1 0DU       0.132000
     36 H11          1.9370     0.0010    -0.9380 ha         1 0DU       0.100000
     37 H12          3.1660    -0.0000     1.1980 ha         1 0DU       0.113000
     38 H14          3.0930    -0.5130     3.5660 hc         1 0DU       0.036200
     39 H14A         1.5630    -0.5140     4.4540 hc         1 0DU       0.036200
     40 HN16         3.9450     1.5520     2.6500 hn         1 0DU       0.156500
     41 H23          6.5060     5.8070    -0.4650 ha         1 0DU       0.094000
     42 H30         -0.5280     0.0100     3.3430 ha         1 0DU       0.113000
     43 H31         -1.7750     0.0140     1.2180 ha         1 0DU       0.100000
     44 H35         -0.6010     2.9940    -3.7910 h1         1 0DU       0.032033
     45 H35A        -0.8240     1.9170    -5.1770 h1         1 0DU       0.032033
     46 H35B        -2.2290     2.6540    -4.3940 h1         1 0DU       0.032033
     47 C17          3.2670     3.4360     3.0450 c          1 0DU       0.581700
     48 Cl1          5.9790     4.2490     4.0930 cl         1 0DU       0.035600
     49 C01         -2.8630     0.0530    -4.9740 c3         1 0DU       0.057100
     50 H22          7.2630     5.4440     1.8500 ha         1 0DU       0.107000
     51 H01         -3.4340    -0.8610    -5.0780 hc         1 0DU       0.017033
     52 H01A        -2.1570     0.1340    -5.7920 hc         1 0DU       0.017033
     53 H01B        -3.5350     0.9030    -4.9920 hc         1 0DU       0.017033
@<TRIPOS>BOND
     1     1    14 1   
     2     1    15 ar  
     3     1    28 ar  
     4     2    16 ar  
     5     2    17 1   
     6     2    27 ar  
     7     3    17 1   
     8     3    18 1   
     9     3    24 1   
    10     3    33 1   
    11     4     5 ar  
    12     4    20 ar  
    13     4    48 1   
    14     5    21 ar  
    15     5    50 1   
    16     6    21 ar  
    17     6    22 ar  
    18     6    34 1   
    19     7     8 2   
    20     7    31 1   
    21     7    49 1   
    22     8     9 1   
    23     8    35 1   
    24     9    10 1   
    25     9    14 2   
    26    10    11 1   
    27    10    12 1   
    28    10    13 1   
    29    14    29 1   
    30    15    16 ar  
    31    15    36 1   
    32    16    37 1   
    33    17    38 1   
    34    17    39 1   
    35    18    40 1   
    36    18    47 1   
    37    19    47 2   
    38    20    22 ar  
    39    20    47 1   
    40    21    41 1   
    41    22    23 1   
    42    24    25 1   
    43    24    26 1   
    44    27    28 ar  
    45    27    42 1   
    46    28    43 1   
    47    29    30 2   
    48    29    31 1   
    49    31    32 1   
    50    32    44 1   
    51    32    45 1   
    52    32    46 1   
    53    49    51 1   
    54    49    52 1   
    55    49    53 1   
@<TRIPOS>SUBSTRUCTURE
     1 0DU         1 TEMP              0 ****  ****    0 ROOT
