@<TRIPOS>MOLECULE
molecule
   53    55     1     0     0
SMALL
bcc


@<TRIPOS>ATOM
      1 C10          0.0000     0.0000     0.0000 ca         1 0DU      -0.081800
      2 C13          1.3910    -0.0020     2.3940 ca         1 0DU      -0.043300
      3 C15          2.4030     1.4390     4.1400 c3         1 0DU       0.012700
      4 C20          5.4400     4.5110     2.4640 ca         1 0DU       0.052900
      5 C22          6.2730     5.1240     1.5490 ca         1 0DU      -0.143000
      6 C24          4.5840     4.9220    -0.1450 ca         1 0DU      -0.143000
      7 C02         -2.1150     0.0320    -3.6660 cc         1 0DU       0.042400
      8 C03         -2.2230    -1.0460    -2.8540 cd         1 0DU      -0.215000
      9 C04         -1.5330    -1.0810    -1.6380 cd         1 0DU      -0.108200
     10 C05         -1.6480    -2.2760    -0.7270 c3         1 0DU       0.671100
     11 F06         -0.5100    -2.3570     0.0820 f          1 0DU      -0.218300
     12 F07         -2.7840    -2.1430     0.0780 f          1 0DU      -0.218300
     13 F08         -1.7560    -3.4400    -1.4970 f          1 0DU      -0.218300
     14 C09         -0.7440     0.0010    -1.2810 cc         1 0DU      -0.062400
     15 C11          1.3950     0.0000     0.0000 ca         1 0DU      -0.097000
     16 C12          2.0820     0.0000     1.1970 ca         1 0DU      -0.127000
     17 C14          2.1470    -0.0020     3.6980 c3         1 0DU      -0.041100
     18 N16          3.2900     2.0960     3.1780 ns         1 0DU      -0.531900
     19 O18          2.5110     4.1020     3.7250 o          1 0DU      -0.592100
     20 C19          4.1630     4.0980     2.0740 ca         1 0DU      -0.107600
     21 C23          5.8470     5.3280     0.2490 ca         1 0DU      -0.121000
     22 C25          3.7370     4.3140     0.7600 ca         1 0DU       0.052900
     23 Cl2          2.1530     3.8040     0.2640 cl         1 0DU      -0.052900
     24 C27          3.0500     1.4400     5.5020 c          1 0DU       0.885600
     25 O28          4.1410     1.9370     5.6510 o          1 0DU      -0.835800
     26 O29          2.4150     0.8880     6.5470 o          1 0DU      -0.835800
     27 C30          0.0070     0.0090     2.4020 ca         1 0DU      -0.127000
     28 C31         -0.6920     0.0050     1.2120 ca         1 0DU      -0.097000
     29 C32         -0.6600     1.1080    -2.1610 c          1 0DU       0.684700
     30 O33          0.0280     2.0710    -1.8680 o          1 0DU      -0.623500
     31 N34         -1.3380     1.0920    -3.3240 n          1 0DU      -0.316000
     32 C35         -1.2420     2.2390    -4.2310 c3         1 0DU       0.071300
     33 H15          1.4620     1.9740     4.1870 h1         1 0DU       0.080700
     34 H24          4.2570     5.0880    -1.1640 ha         1 0DU       0.136000
     35 H03         -2.8480    -1.8820    -3.1450 ha         1 0DU       0.153000
     36 H11          1.9370     0.0010    -0.9380 ha         1 0DU       0.124000
     37 H12          3.1660    -0.0000     1.1980 ha         1 0DU       0.135500
     38 H14          3.0930    -0.5130     3.5660 hc         1 0DU       0.065700
     39 H14A         1.5630    -0.5140     4.4540 hc         1 0DU       0.065700
     40 HN16         3.9450     1.5520     2.6500 hn         1 0DU       0.299500
     41 H23          6.5060     5.8070    -0.4650 ha         1 0DU       0.125000
     42 H30         -0.5280     0.0100     3.3430 ha         1 0DU       0.135500
     43 H31         -1.7750     0.0140     1.2180 ha         1 0DU       0.124000
     44 H35         -0.6010     2.9940    -3.7910 h1         1 0DU       0.058700
     45 H35A        -0.8240     1.9170    -5.1770 h1         1 0DU       0.058700
     46 H35B        -2.2290     2.6540    -4.3940 h1         1 0DU       0.058700
     47 C17          3.2670     3.4360     3.0450 c          1 0DU       0.675700
     48 Cl1          5.9790     4.2490     4.0930 cl         1 0DU      -0.052900
     49 C01         -2.8630     0.0530    -4.9740 c3         1 0DU      -0.057900
     50 H22          7.2630     5.4440     1.8500 ha         1 0DU       0.136000
     51 H01         -3.4340    -0.8610    -5.0780 hc         1 0DU       0.054033
     52 H01A        -2.1570     0.1340    -5.7920 hc         1 0DU       0.054033
     53 H01B        -3.5350     0.9030    -4.9920 hc         1 0DU       0.054033
@<TRIPOS>BOND
     1    28     1 ar
     2    14     1 1
     3     1    15 ar
     4    27     2 ar
     5     2    17 1
     6     2    16 ar
     7    18     3 1
     8     3    17 1
     9     3    24 1
    10     3    33 1
    11    20    47 1
    12    47    19 2
    13    47    18 1
    14     5     4 ar
    15     4    20 ar
    16     4    48 1
    17    21     5 ar
    18     5    50 1
    19    21     6 ar
    20     6    22 ar
    21     6    34 1
    22     7    49 1
    23    49    51 1
    24    49    52 1
    25    49    53 1
    26     8     7 2
    27     7    31 1
    28     9     8 1
    29     8    35 1
    30    10     9 1
    31     9    14 2
    32    11    10 1
    33    13    10 1
    34    10    12 1
    35    14    29 1
    36    15    16 ar
    37    15    36 1
    38    16    37 1
    39    17    38 1
    40    17    39 1
    41    18    40 1
    42    22    20 ar
    43    21    41 1
    44    22    23 1
    45    25    24 1
    46    24    26 1
    47    28    27 ar
    48    27    42 1
    49    28    43 1
    50    29    31 1
    51    29    30 2
    52    31    32 1
    53    32    44 1
    54    32    45 1
    55    32    46 1
@<TRIPOS>SUBSTRUCTURE
     1 0DU         1 TEMP              0 ****  ****    0 ROOT
