@<TRIPOS>MOLECULE
0DX
  126   133     1     0     0
SMALL
bcc


@<TRIPOS>ATOM
      1 CAA          0.0000     0.0000     0.0000 c3         1 0DX       0.189100
      2 OAE          7.3730    -9.1270     8.1670 o          1 0DX      -0.652000
      3 OAF         10.6200    -1.7500     6.0940 o          1 0DX      -0.652000
      4 OAG          5.3490    -6.3490     5.3630 o          1 0DX      -0.687500
      5 OAH         12.6230    -4.5120     8.9300 o          1 0DX      -0.687500
      6 CAI          9.5610    -7.4010     8.6070 ca         1 0DX      -0.086500
      7 CAJ          8.4250    -3.4700     5.6650 ca         1 0DX      -0.086500
      8 CAK          4.9580    -2.6750     3.2040 c3         1 0DX      -0.046900
      9 CAL         13.0050    -8.1760    11.1040 c3         1 0DX      -0.046900
     10 CAM          4.1820    -8.4320     7.6300 c3         1 0DX      -0.055900
     11 CAN         13.8080    -2.4510     6.6310 c3         1 0DX      -0.055900
     12 CAO          6.2190    -2.7520     4.0670 c3         1 0DX       0.149800
     13 CAP         11.7530    -8.1070    10.2270 c3         1 0DX       0.149800
     14 CAQ          4.8680    -1.2920     2.5570 c3         1 0DX       0.160800
     15 CAR         13.0950    -9.5570    11.7570 c3         1 0DX       0.160800
     16 CAS          3.0400    -9.4360     7.4600 c3         1 0DX       0.161800
     17 CAT         14.9530    -1.4490     6.7970 c3         1 0DX       0.161800
     18 CAU          2.4220     0.0000     0.0000 c3         1 0DX       0.155300
     19 CAV          1.2120    -1.2920     1.6520 c3         1 0DX       0.155300
     20 CAW         15.4920    -8.7470    14.5470 c3         1 0DX       0.155300
     21 CAX         15.8480   -11.0400    13.8570 c3         1 0DX       0.155300
     22 CAY         -0.2920    -9.5980     9.2110 c3         1 0DX       0.214900
     23 CAZ          1.3970    -9.0910    10.8310 c3         1 0DX       0.214900
     24 CBA         18.2820    -1.3020     5.0420 c3         1 0DX       0.214900
     25 CBB         16.5890    -1.8100     3.4250 c3         1 0DX       0.214900
     26 CBC          3.6560     0.0000     0.9050 c3         1 0DX       0.149550
     27 CBD          2.4460    -1.2920     2.5560 c3         1 0DX       0.149550
     28 CBE         14.1910    -8.7070    13.7420 c3         1 0DX       0.149550
     29 CBF         14.5470   -10.9990    13.0520 c3         1 0DX       0.149550
     30 CBG          0.7860    -9.9510     8.1810 c3         1 0DX       0.107800
     31 CBH          2.4920    -9.4380     9.8190 c3         1 0DX       0.107800
     32 CBI         17.2070    -0.9440     6.0710 c3         1 0DX       0.107800
     33 CBJ         15.4980    -1.4560     4.4370 c3         1 0DX       0.107800
     34 CBK          5.2670    -8.7110     6.5890 c3         1 0DX       0.023000
     35 CBL         12.7250    -2.1650     7.6740 c3         1 0DX       0.023000
     36 NBM          6.3060    -4.0770     4.6880 nu         1 0DX      -0.405600
     37 NBN         11.6680    -6.7840     9.6030 nu         1 0DX      -0.405600
     38 CBO          7.3700    -4.3830     5.5200 ca         1 0DX       0.122100
     39 CBP         10.6120    -6.4840     8.7590 ca         1 0DX       0.122100
     40 CBQ          7.3770    -8.0640     7.5780 c          1 0DX       0.646100
     41 CBR         10.6120    -2.8110     6.6880 c          1 0DX       0.646100
     42 CBS          6.2990    -6.5830     6.0840 c          1 0DX       0.677100
     43 CBT         11.6790    -4.2830     8.1990 c          1 0DX       0.677100
     44 CBU          8.4960    -7.1220     7.7690 ca         1 0DX      -0.108100
     45 CBV          9.4900    -3.7490     6.5010 ca         1 0DX      -0.108100
     46 CBW          7.3840    -5.5980     6.2070 ca         1 0DX      -0.265100
     47 CBX         10.5990    -5.2710     8.0690 ca         1 0DX      -0.265100
     48 CBY          8.4670    -5.8940     7.0650 ca         1 0DX       0.001000
     49 CBZ          9.5160    -4.9760     7.2100 ca         1 0DX       0.001000
     50 NCA          1.2110    -0.0740     0.8290 n3         1 0DX      -0.550600
     51 NCB         15.7410   -10.1230    15.0000 n3         1 0DX      -0.550600
     52 OCC          0.2160    -9.8370    10.5260 os         1 0DX      -0.412600
     53 OCD         17.7720    -1.0660     3.7260 os         1 0DX      -0.412600
     54 NCE          3.6580    -1.2180     1.7270 n3         1 0DX      -0.544100
     55 NCF         14.2970    -9.6240    12.5980 n3         1 0DX      -0.544100
     56 NCG          1.9990    -9.1680     8.4600 n3         1 0DX      -0.537600
     57 NCH         15.9920    -1.7240     5.7950 n3         1 0DX      -0.537600
     58 NCI          6.3600    -7.7500     6.7520 n          1 0DX      -0.091400
     59 NCJ         11.6290    -3.1240     7.5140 n          1 0DX      -0.091400
     60 HAA         -0.0250    -0.8440    -0.6780 h1         1 0DX       0.000367
     61 HAAA         0.0080     0.9210    -0.5700 h1         1 0DX       0.000367
     62 HAAB        -0.8760    -0.0220     0.6370 h1         1 0DX       0.000367
     63 HAB         17.8070    -9.8810    15.2650 h1         1 0DX       0.000367
     64 HABA        17.0850   -11.2060    16.1900 h1         1 0DX       0.000367
     65 HABB        16.8250    -9.5300    16.6940 h1         1 0DX       0.000367
     66 HAI          9.5840    -8.3380     9.1510 ha         1 0DX       0.139000
     67 HAJ          8.4050    -2.5370     5.1150 ha         1 0DX       0.139000
     68 HAK          4.0860    -2.8410     3.8240 hc         1 0DX       0.032200
     69 HAKA         5.0030    -3.4330     2.4320 hc         1 0DX       0.032200
     70 HAL         13.8840    -8.0070    10.4930 hc         1 0DX       0.032200
     71 HALA        12.9490    -7.4160    11.8740 hc         1 0DX       0.032200
     72 HAM          3.8020    -7.4270     7.4950 hc         1 0DX       0.033950
     73 HAMA         4.6020    -8.5290     8.6240 hc         1 0DX       0.033950
     74 HAN         14.1850    -3.4570     6.7690 hc         1 0DX       0.033950
     75 HANA        13.3860    -2.3560     5.6380 hc         1 0DX       0.033950
     76 HAO          7.0920    -2.5860     3.4480 h1         1 0DX       0.019200
     77 HAOA         6.1750    -1.9930     4.8400 h1         1 0DX       0.019200
     78 HAP         10.8750    -8.2750    10.8380 h1         1 0DX       0.019200
     79 HAPA        11.8100    -8.8660     9.4570 h1         1 0DX       0.019200
     80 HAQ          5.7410    -1.1260     1.9370 h1         1 0DX       0.010950
     81 HAQA         4.8240    -0.5340     3.3290 h1         1 0DX       0.010950
     82 HAR         12.2160    -9.7250    12.3680 h1         1 0DX       0.010950
     83 HARA        13.1500   -10.3170    10.9870 h1         1 0DX       0.010950
     84 HAS          2.6200    -9.3400     6.4660 h1         1 0DX       0.011200
     85 HASA         3.4200   -10.4420     7.5950 h1         1 0DX       0.011200
     86 HAT         15.3740    -1.5440     7.7910 h1         1 0DX       0.011200
     87 HATA        14.5750    -0.4430     6.6600 h1         1 0DX       0.011200
     88 HAU          2.4030     0.9120    -0.5840 h1         1 0DX       0.014200
     89 HAUA         2.4590    -0.8580    -0.6600 h1         1 0DX       0.014200
     90 HAV          1.2380    -2.1620     1.0070 h1         1 0DX       0.014200
     91 HAVA         0.3180    -1.3150     2.2630 h1         1 0DX       0.014200
     92 HAW         16.3130    -8.4200    13.9210 h1         1 0DX       0.014200
     93 HAWA        15.4040    -8.0950    15.4070 h1         1 0DX       0.014200
     94 HAX         16.6730   -10.7340    13.2250 h1         1 0DX       0.014200
     95 HAXA        16.0160   -12.0480    14.2180 h1         1 0DX       0.014200
     96 HAY         -1.1660   -10.2160     9.0440 h1         1 0DX       0.011950
     97 HAYA        -0.5570    -8.5520     9.1110 h1         1 0DX       0.011950
     98 HAZ          1.7360    -9.3440    11.8290 h1         1 0DX       0.011950
     99 HAZA         1.1790    -8.0310    10.7760 h1         1 0DX       0.011950
    100 HBA         18.5450    -2.3480     5.1440 h1         1 0DX       0.011950
    101 HBAA        19.1580    -0.6860     5.2050 h1         1 0DX       0.011950
    102 HBB         16.2500    -1.5600     2.4270 h1         1 0DX       0.011950
    103 HBBA        16.8050    -2.8700     3.4830 h1         1 0DX       0.011950
    104 HBC          4.5510     0.0230     0.2940 h1         1 0DX       0.016075
    105 HBCA         3.6300     0.8700     1.5500 h1         1 0DX       0.016075
    106 HBD          2.4080    -0.4340     3.2170 h1         1 0DX       0.016075
    107 HBDA         2.4640    -2.2040     3.1400 h1         1 0DX       0.016075
    108 HBE         14.0220    -7.7000    13.3810 h1         1 0DX       0.016075
    109 HBEA        13.3670    -9.0140    14.3740 h1         1 0DX       0.016075
    110 HBF         13.7260   -11.3270    13.6770 h1         1 0DX       0.016075
    111 HBFA        14.6360   -11.6520    12.1910 h1         1 0DX       0.016075
    112 HBG          0.4250    -9.7170     7.1870 h1         1 0DX       0.019075
    113 HBGA         1.0160   -11.0080     8.2480 h1         1 0DX       0.019075
    114 HBH          3.3680    -8.8300    10.0120 h1         1 0DX       0.019075
    115 HBHA         2.7460   -10.4870     9.9080 h1         1 0DX       0.019075
    116 HBI         17.5680    -1.1770     7.0650 h1         1 0DX       0.019075
    117 HBIA        16.9800     0.1130     6.0020 h1         1 0DX       0.019075
    118 HBJ         15.2470    -0.4060     4.3450 h1         1 0DX       0.019075
    119 HBJA        14.6200    -2.0620     4.2480 h1         1 0DX       0.019075
    120 HBK          5.6470    -9.7170     6.7230 h1         1 0DX       0.048450
    121 HBKA         4.8470    -8.6150     5.5950 h1         1 0DX       0.048450
    122 HBL         12.3480    -1.1590     7.5370 h1         1 0DX       0.048450
    123 HBLA        13.1470    -2.2610     8.6670 h1         1 0DX       0.048450
    124 HNBM         5.6100    -4.7680     4.4910 hn         1 0DX       0.359800
    125 HNBN        12.3500    -6.0840     9.8180 hn         1 0DX       0.359800
    126 CAB         16.9440   -10.1890    15.8430 c3         1 0DX       0.189100
@<TRIPOS>BOND
     1     1    50 1   
     2     1    60 1   
     3     1    61 1   
     4     1    62 1   
     5     2    40 2   
     6     3    41 2   
     7     4    42 2   
     8     5    43 2   
     9     6    39 ar  
    10     6    44 ar  
    11     6    66 1   
    12     7    38 ar  
    13     7    45 ar  
    14     7    67 1   
    15     8    12 1   
    16     8    14 1   
    17     8    68 1   
    18     8    69 1   
    19     9    13 1   
    20     9    15 1   
    21     9    70 1   
    22     9    71 1   
    23    10    16 1   
    24    10    34 1   
    25    10    72 1   
    26    10    73 1   
    27    11    17 1   
    28    11    35 1   
    29    11    74 1   
    30    11    75 1   
    31    12    36 1   
    32    12    76 1   
    33    12    77 1   
    34    13    37 1   
    35    13    78 1   
    36    13    79 1   
    37    14    54 1   
    38    14    80 1   
    39    14    81 1   
    40    15    55 1   
    41    15    82 1   
    42    15    83 1   
    43    16    56 1   
    44    16    84 1   
    45    16    85 1   
    46    17    57 1   
    47    17    86 1   
    48    17    87 1   
    49    18    26 1   
    50    18    50 1   
    51    18    88 1   
    52    18    89 1   
    53    19    27 1   
    54    19    50 1   
    55    19    90 1   
    56    19    91 1   
    57    20    28 1   
    58    20    51 1   
    59    20    92 1   
    60    20    93 1   
    61    21    29 1   
    62    21    51 1   
    63    21    94 1   
    64    21    95 1   
    65    22    30 1   
    66    22    52 1   
    67    22    96 1   
    68    22    97 1   
    69    23    31 1   
    70    23    52 1   
    71    23    98 1   
    72    23    99 1   
    73    24    32 1   
    74    24    53 1   
    75    24   100 1   
    76    24   101 1   
    77    25    33 1   
    78    25    53 1   
    79    25   102 1   
    80    25   103 1   
    81    26    54 1   
    82    26   104 1   
    83    26   105 1   
    84    27    54 1   
    85    27   106 1   
    86    27   107 1   
    87    28    55 1   
    88    28   108 1   
    89    28   109 1   
    90    29    55 1   
    91    29   110 1   
    92    29   111 1   
    93    30    56 1   
    94    30   112 1   
    95    30   113 1   
    96    31    56 1   
    97    31   114 1   
    98    31   115 1   
    99    32    57 1   
   100    32   116 1   
   101    32   117 1   
   102    33    57 1   
   103    33   118 1   
   104    33   119 1   
   105    34    58 1   
   106    34   120 1   
   107    34   121 1   
   108    35    59 1   
   109    35   122 1   
   110    35   123 1   
   111    36    38 1   
   112    36   124 1   
   113    37    39 1   
   114    37   125 1   
   115    38    46 ar  
   116    39    47 ar  
   117    40    44 1   
   118    40    58 1   
   119    41    45 1   
   120    41    59 1   
   121    42    46 1   
   122    42    58 1   
   123    43    47 1   
   124    43    59 1   
   125    44    48 ar  
   126    45    49 ar  
   127    46    48 ar  
   128    47    49 ar  
   129    48    49 ar  
   130    51   126 1   
   131    63   126 1   
   132    64   126 1   
   133    65   126 1   
@<TRIPOS>SUBSTRUCTURE
     1 0DX         1 TEMP              0 ****  ****    0 ROOT
