@<TRIPOS>MOLECULE
0DX
  126   133     1     0     0
SMALL
bcc


@<TRIPOS>ATOM
      1 CAA          0.6930    -0.7830    -0.5200 c3         1 0DX       0.157100
      2 OAE         14.4610    -2.8920     4.9260 o          1 0DX      -0.615500
      3 OAF          9.8170     4.0780     5.8830 o          1 0DX      -0.615500
      4 OAG         10.1870    -2.5900     3.3630 o          1 0DX      -0.651500
      5 OAH         14.0620     3.7440     7.5070 o          1 0DX      -0.651500
      6 CAI         14.3650    -0.3660     6.1060 ca         1 0DX      -0.121000
      7 CAJ          9.8900     1.5280     4.7460 ca         1 0DX      -0.121000
      8 CAK          6.5540    -0.1530     2.4780 c3         1 0DX      -0.114900
      9 CAL         17.6940     1.2810     8.4120 c3         1 0DX      -0.114900
     10 CAM         11.7620    -5.1280     4.4480 c3         1 0DX      -0.098400
     11 CAN         12.0830     6.3190     6.3540 c3         1 0DX      -0.098400
     12 CAO          7.6380     0.5730     3.2760 c3         1 0DX       0.211300
     13 CAP         16.6080     0.5790     7.6000 c3         1 0DX       0.211300
     14 CAQ          5.3380     0.7660     2.3640 c3         1 0DX       0.172300
     15 CAR         18.2960     2.4570     7.6410 c3         1 0DX       0.172300
     16 CAS         11.8900    -6.4840     3.7570 c3         1 0DX       0.174300
     17 CAT         11.8750     7.6940     6.9790 c3         1 0DX       0.174300
     18 CAU          3.0630    -1.0000    -0.1300 c3         1 0DX       0.167800
     19 CAV          1.7010     0.2820     1.3950 c3         1 0DX       0.167800
     20 CAW         20.2360     4.6620    10.0590 c3         1 0DX       0.167800
     21 CAX         21.7900     3.1590     8.9760 c3         1 0DX       0.167800
     22 CAY          9.6150    -8.7880     5.7470 c3         1 0DX       0.126900
     23 CAZ         11.3400   -10.0830     4.7900 c3         1 0DX       0.126900
     24 CBA          8.0920     8.0840     7.0520 c3         1 0DX       0.126900
     25 CBB          9.0370     9.6250     8.5660 c3         1 0DX       0.126900
     26 CBC          4.3330    -0.3600     0.4620 c3         1 0DX       0.168550
     27 CBD          2.9670     0.9300     1.9860 c3         1 0DX       0.168550
     28 CBE         19.0550     3.8620     9.4750 c3         1 0DX       0.168550
     29 CBF         20.6090     2.3580     8.3940 c3         1 0DX       0.168550
     30 CBG         10.0690    -7.5520     4.9620 c3         1 0DX       0.129300
     31 CBH         11.8290    -8.8820     3.9750 c3         1 0DX       0.129300
     32 CBI          9.4790     7.6960     6.5300 c3         1 0DX       0.129300
     33 CBJ         10.4480     9.2910     8.0700 c3         1 0DX       0.129300
     34 CBK         12.4010    -4.0660     3.5510 c3         1 0DX       0.087500
     35 CBL         11.8030     5.2020     7.3580 c3         1 0DX       0.087500
     36 NBM          8.8550    -0.1900     3.3830 nu         1 0DX      -0.758600
     37 NBN         15.3990     1.3500     7.4710 nu         1 0DX      -0.758600
     38 CBO          9.9070     0.2060     4.1660 ca         1 0DX       0.260600
     39 CBP         14.3450     0.9530     6.6920 ca         1 0DX       0.260600
     40 CBQ         13.4260    -2.2110     4.7960 c          1 0DX       0.714100
     41 CBR         10.8340     3.3750     6.0500 c          1 0DX       0.714100
     42 CBS         11.1300    -1.9920     3.9250 c          1 0DX       0.737100
     43 CBT         13.1170     3.1470     6.9470 c          1 0DX       0.737100
     44 CBU         13.3130    -0.8460     5.3720 ca         1 0DX      -0.089100
     45 CBV         10.9410     2.0080     5.4800 ca         1 0DX      -0.089100
     46 CBW         11.0450    -0.5980     4.4100 ca         1 0DX      -0.228600
     47 CBX         13.2060     1.7570     6.4510 ca         1 0DX      -0.228600
     48 CBY         12.1390    -0.0700     5.1540 ca         1 0DX       0.002000
     49 CBZ         12.1140     1.2300     5.7030 ca         1 0DX       0.002000
     50 NCA          1.8810    -0.1640     0.0220 n3         1 0DX      -0.733100
     51 NCB         21.4460     3.8640    10.2030 n3         1 0DX      -0.733100
     52 OCC          9.9480    -9.9950     5.0730 os         1 0DX      -0.417100
     53 OCD          8.0620     9.4150     7.5530 os         1 0DX      -0.417100
     54 NCE          4.1560     0.1010     1.8310 n3         1 0DX      -0.732600
     55 NCF         19.4050     3.1610     8.2500 n3         1 0DX      -0.732600
     56 NCG         11.4770    -7.6070     4.5900 n3         1 0DX      -0.726600
     57 NCH         10.5380     7.9520     7.4980 n3         1 0DX      -0.726600
     58 NCI         12.3300    -2.7140     4.0860 n          1 0DX      -0.485900
     59 NCJ         11.9130     3.8620     6.7950 n          1 0DX      -0.485900
     60 HAA         -0.1570    -0.0550    -0.4480 h1         1 0DX       0.032700
     61 HAAA         0.3990    -1.7290     0.0130 h1         1 0DX       0.032700
     62 HAAB         0.8730    -1.0240    -1.6000 h1         1 0DX       0.032700
     63 HAB         23.4220     3.9410    10.8940 h1         1 0DX       0.032700
     64 HABA        22.8840     5.4630    10.0460 h1         1 0DX       0.032700
     65 HABB        22.2500     5.0750    11.7110 h1         1 0DX       0.032700
     66 HAI         15.2470    -1.0180     6.2450 ha         1 0DX       0.171500
     67 HAJ          9.0100     2.1810     4.6030 ha         1 0DX       0.171500
     68 HAK          6.9370    -0.4130     1.4570 hc         1 0DX       0.060950
     69 HAKA         6.2710    -1.1100     2.9910 hc         1 0DX       0.060950
     70 HAL         18.4870     0.5190     8.6310 hc         1 0DX       0.060950
     71 HALA        17.2850     1.6310     9.3950 hc         1 0DX       0.060950
     72 HAM         10.6820    -4.8750     4.6130 hc         1 0DX       0.058700
     73 HAMA        12.2730    -5.1510     5.4450 hc         1 0DX       0.058700
     74 HAN         13.1500     6.2610     6.0120 hc         1 0DX       0.058700
     75 HANA        11.4270     6.1990     5.4520 hc         1 0DX       0.058700
     76 HAO          7.8690     1.5560     2.7690 h1         1 0DX       0.046450
     77 HAOA         7.2370     0.8060     4.3070 h1         1 0DX       0.046450
     78 HAP         17.0190     0.3350     6.5760 h1         1 0DX       0.046450
     79 HAPA        16.3600    -0.3990     8.1100 h1         1 0DX       0.046450
     80 HAQ          5.0750     1.1400     3.3950 h1         1 0DX       0.045200
     81 HAQA         5.6290     1.6640     1.7420 h1         1 0DX       0.045200
     82 HAR         18.6540     2.0800     6.6390 h1         1 0DX       0.045200
     83 HARA        17.4890     3.2220     7.4520 h1         1 0DX       0.045200
     84 HAS         11.3060    -6.4490     2.7890 h1         1 0DX       0.033950
     85 HASA        12.9740    -6.6500     3.4920 h1         1 0DX       0.033950
     86 HAT         12.1710     8.4630     6.2030 h1         1 0DX       0.033950
     87 HATA        12.5840     7.8020     7.8500 h1         1 0DX       0.033950
     88 HAU          3.2380    -1.1510    -1.2320 h1         1 0DX       0.037450
     89 HAUA         2.9180    -2.0160     0.3400 h1         1 0DX       0.037450
     90 HAV          1.3800    -0.5650     2.0700 h1         1 0DX       0.037450
     91 HAVA         0.8840     1.0570     1.4010 h1         1 0DX       0.037450
     92 HAW         19.9370     5.0180    11.0840 h1         1 0DX       0.037450
     93 HAWA        20.4110     5.5720     9.4130 h1         1 0DX       0.037450
     94 HAX         22.1740     3.8640     8.1820 h1         1 0DX       0.037450
     95 HAXA        22.6130     2.4300     9.2190 h1         1 0DX       0.037450
     96 HAY         10.0700    -8.7940     6.7720 h1         1 0DX       0.052825
     97 HAYA         8.4970    -8.8080     5.8210 h1         1 0DX       0.052825
     98 HAZ         11.9130   -10.1700     5.7510 h1         1 0DX       0.052825
     99 HAZA        11.4450   -11.0250     4.1910 h1         1 0DX       0.052825
    100 HBA          7.3510     8.0850     6.2100 h1         1 0DX       0.052825
    101 HBAA         7.7600     7.3750     7.8560 h1         1 0DX       0.052825
    102 HBB          8.7790     9.0130     9.4700 h1         1 0DX       0.052825
    103 HBBA         8.9620    10.7180     8.8070 h1         1 0DX       0.052825
    104 HBC          4.6680     0.4760    -0.2190 h1         1 0DX       0.037200
    105 HBCA         5.1380    -1.1470     0.4670 h1         1 0DX       0.037200
    106 HBD          2.7920     1.0790     3.0880 h1         1 0DX       0.037200
    107 HBDA         3.1050     1.9470     1.5150 h1         1 0DX       0.037200
    108 HBE         18.2310     4.5900     9.2350 h1         1 0DX       0.037200
    109 HBEA        18.6740     3.1560    10.2690 h1         1 0DX       0.037200
    110 HBF         20.9080     1.9960     7.3710 h1         1 0DX       0.037200
    111 HBFA        20.4360     1.4520     9.0460 h1         1 0DX       0.037200
    112 HBG          9.9220    -6.6470     5.6140 h1         1 0DX       0.042950
    113 HBGA         9.4040    -7.4400     4.0560 h1         1 0DX       0.042950
    114 HBH         12.9510    -8.9310     3.9060 h1         1 0DX       0.042950
    115 HBHA        11.4120    -8.9680     2.9290 h1         1 0DX       0.042950
    116 HBI          9.4730     6.5900     6.3090 h1         1 0DX       0.042950
    117 HBIA         9.6630     8.2470     5.5610 h1         1 0DX       0.042950
    118 HBJ         11.1550     9.3390     8.9440 h1         1 0DX       0.042950
    119 HBJA        10.7590    10.0820     7.3270 h1         1 0DX       0.042950
    120 HBK         11.8770    -4.0680     2.5520 h1         1 0DX       0.077700
    121 HBKA        13.4880    -4.3200     3.3880 h1         1 0DX       0.077700
    122 HBL         12.5250     5.2890     8.2180 h1         1 0DX       0.077700
    123 HBLA        10.7530     5.3100     7.7580 h1         1 0DX       0.077700
    124 HNBM         8.8280    -1.1320     3.0490 hn         1 0DX       0.472300
    125 HNBN        15.4150     2.2830     7.8290 hn         1 0DX       0.472300
    126 CAB         22.5530     4.6310    10.7270 c3         1 0DX       0.157100
@<TRIPOS>BOND
     1     1    50 1   
     2     1    60 1   
     3     1    61 1   
     4     1    62 1   
     5     2    40 2   
     6     3    41 2   
     7     4    42 2   
     8     5    43 2   
     9     6    39 ar  
    10     6    44 ar  
    11     6    66 1   
    12     7    38 ar  
    13     7    45 ar  
    14     7    67 1   
    15     8    12 1   
    16     8    14 1   
    17     8    68 1   
    18     8    69 1   
    19     9    13 1   
    20     9    15 1   
    21     9    70 1   
    22     9    71 1   
    23    10    16 1   
    24    10    34 1   
    25    10    72 1   
    26    10    73 1   
    27    11    17 1   
    28    11    35 1   
    29    11    74 1   
    30    11    75 1   
    31    12    36 1   
    32    12    76 1   
    33    12    77 1   
    34    13    37 1   
    35    13    78 1   
    36    13    79 1   
    37    14    54 1   
    38    14    80 1   
    39    14    81 1   
    40    15    55 1   
    41    15    82 1   
    42    15    83 1   
    43    16    56 1   
    44    16    84 1   
    45    16    85 1   
    46    17    57 1   
    47    17    86 1   
    48    17    87 1   
    49    18    26 1   
    50    18    50 1   
    51    18    88 1   
    52    18    89 1   
    53    19    27 1   
    54    19    50 1   
    55    19    90 1   
    56    19    91 1   
    57    20    28 1   
    58    20    51 1   
    59    20    92 1   
    60    20    93 1   
    61    21    29 1   
    62    21    51 1   
    63    21    94 1   
    64    21    95 1   
    65    22    30 1   
    66    22    52 1   
    67    22    96 1   
    68    22    97 1   
    69    23    31 1   
    70    23    52 1   
    71    23    98 1   
    72    23    99 1   
    73    24    32 1   
    74    24    53 1   
    75    24   100 1   
    76    24   101 1   
    77    25    33 1   
    78    25    53 1   
    79    25   102 1   
    80    25   103 1   
    81    26    54 1   
    82    26   104 1   
    83    26   105 1   
    84    27    54 1   
    85    27   106 1   
    86    27   107 1   
    87    28    55 1   
    88    28   108 1   
    89    28   109 1   
    90    29    55 1   
    91    29   110 1   
    92    29   111 1   
    93    30    56 1   
    94    30   112 1   
    95    30   113 1   
    96    31    56 1   
    97    31   114 1   
    98    31   115 1   
    99    32    57 1   
   100    32   116 1   
   101    32   117 1   
   102    33    57 1   
   103    33   118 1   
   104    33   119 1   
   105    34    58 1   
   106    34   120 1   
   107    34   121 1   
   108    35    59 1   
   109    35   122 1   
   110    35   123 1   
   111    36    38 1   
   112    36   124 1   
   113    37    39 1   
   114    37   125 1   
   115    38    46 ar  
   116    39    47 ar  
   117    40    44 1   
   118    40    58 1   
   119    41    45 1   
   120    41    59 1   
   121    42    46 1   
   122    42    58 1   
   123    43    47 1   
   124    43    59 1   
   125    44    48 ar  
   126    45    49 ar  
   127    46    48 ar  
   128    47    49 ar  
   129    48    49 ar  
   130    51   126 1   
   131    63   126 1   
   132    64   126 1   
   133    65   126 1   
@<TRIPOS>SUBSTRUCTURE
     1 0DX         1 TEMP              0 ****  ****    0 ROOT
