@<TRIPOS>MOLECULE
molecule
   39    41     1     0     0
SMALL
bcc


@<TRIPOS>ATOM
      1 C1           0.0000     0.0000     0.0000 cc         1 0E0       0.061400
      2 N2           1.3730     0.0000     0.0000 ns         1 0E0      -0.436100
      3 C3           2.1070     0.0000     1.1260 c          1 0E0       0.710100
      4 O4           3.3240     0.0020     1.0700 o          1 0E0      -0.639500
      5 C5           1.4230    -0.0020     2.4220 ca         1 0E0      -0.158600
      6 C6           0.0100    -0.0060     2.4270 ca         1 0E0       0.011200
      7 C7          -0.7010    -0.0020     1.1430 cd         1 0E0      -0.198400
      8 C8          -2.2060    -0.0190     1.1610 c3         1 0E0       0.199600
      9 O9          -2.7300     0.3450    -0.1140 os         1 0E0      -0.413600
     10 C10         -2.1500    -0.4110    -1.1860 c3         1 0E0       0.155100
     11 C11         -2.9130    -0.1370    -2.4820 c3         1 0E0      -0.054000
     12 C12         -2.2910    -0.9460    -3.6210 c3         1 0E0      -0.084100
     13 C13         -4.3790    -0.5430    -2.3090 c3         1 0E0       0.151400
     14 O14         -5.0910    -0.2880    -3.5210 oh         1 0E0      -0.613800
     15 C15         -2.8350     1.3550    -2.8150 c3         1 0E0      -0.084100
     16 C16         -0.6930     0.0070    -1.3430 c3         1 0E0      -0.079200
     17 C17         -0.6740    -0.0080     3.6430 ca         1 0E0      -0.146000
     18 C18          0.0330    -0.0060     4.8130 ca         1 0E0      -0.092000
     19 C19          1.4210    -0.0020     4.8080 ca         1 0E0      -0.153000
     20 C20          2.1190    -0.0000     3.6310 ca         1 0E0      -0.054000
     21 H2          -2.5480    -1.0150     1.4140 h1         1 0E0       0.056700
     22 H3          -2.5610     0.6850     1.9050 h1         1 0E0       0.056700
     23 H4          -2.1980    -1.4670    -0.9480 h1         1 0E0       0.044700
     24 H5          -2.0960    -1.9560    -3.2820 hc         1 0E0       0.043700
     25 H6          -1.3610    -0.4830    -3.9280 hc         1 0E0       0.043700
     26 H7          -2.9750    -0.9730    -4.4610 hc         1 0E0       0.043700
     27 H8          -4.8200     0.0310    -1.5030 h1         1 0E0       0.029200
     28 H9          -4.4350    -1.5990    -2.0730 h1         1 0E0       0.029200
     29 H10         -5.9800    -0.5890    -3.4330 ho         1 0E0       0.404000
     30 H11         -3.1920     1.9330    -1.9710 hc         1 0E0       0.043700
     31 H12         -3.4510     1.5650    -3.6810 hc         1 0E0       0.043700
     32 H13         -1.8080     1.6240    -3.0280 hc         1 0E0       0.043700
     33 H14         -0.6520     1.0060    -1.7610 hc         1 0E0       0.072700
     34 H15         -0.1920    -0.6860    -2.0080 hc         1 0E0       0.072700
     35 H16         -1.7580    -0.0110     3.6600 ha         1 0E0       0.134000
     36 H17         -0.4980    -0.0070     5.7570 ha         1 0E0       0.131000
     37 H18          1.9590     0.0000     5.7480 ha         1 0E0       0.135000
     38 H19          3.2020     0.0030     3.6380 ha         1 0E0       0.156000
     39 H20          1.8500     0.0000    -0.8800 hn         1 0E0       0.333500
@<TRIPOS>BOND
     1    19    20 ar
     2    19    18 ar
     3    20     5 ar
     4    18    17 ar
     5     4     3 2
     6     5     3 1
     7     5     6 ar
     8     3     2 1
     9    17     6 ar
    10     6     7 1
    11     2     1 1
    12     7     1 2
    13     7     8 1
    14     1    16 1
    15     8     9 1
    16    16    10 1
    17     9    10 1
    18    10    11 1
    19    11    12 1
    20    11    15 1
    21    11    13 1
    22    13    14 1
    23     8    21 1
    24     8    22 1
    25    10    23 1
    26    12    24 1
    27    12    25 1
    28    12    26 1
    29    13    27 1
    30    13    28 1
    31    14    29 1
    32    15    30 1
    33    15    31 1
    34    15    32 1
    35    16    33 1
    36    16    34 1
    37    17    35 1
    38    18    36 1
    39    19    37 1
    40    20    38 1
    41     2    39 1
@<TRIPOS>SUBSTRUCTURE
     1 0E0         1 TEMP              0 ****  ****    0 ROOT
