@<TRIPOS>MOLECULE
0E0
   39    41     1     0     0
SMALL
bcc


@<TRIPOS>ATOM
      1 C1          -0.0020    -0.0290    -0.0420 cc         1 0E0       0.073400
      2 N2           1.3830    -0.0640    -0.0660 ns         1 0E0      -0.450100
      3 C3           2.1510    -0.0500     1.1050 c          1 0E0       0.707100
      4 O4           3.3930    -0.0740     0.9950 o          1 0E0      -0.636500
      5 C5           1.4220    -0.0120     2.3850 ca         1 0E0      -0.158600
      6 C6           0.0120     0.0200     2.4000 ca         1 0E0       0.030200
      7 C7          -0.6990     0.0220     1.1430 cd         1 0E0      -0.202400
      8 C8          -2.1880     0.0680     1.1550 c3         1 0E0       0.189600
      9 O9          -2.7780     0.3060    -0.1170 os         1 0E0      -0.414600
     10 C10         -2.1790    -0.4620    -1.1640 c3         1 0E0       0.147100
     11 C11         -3.0400    -0.2590    -2.4280 c3         1 0E0      -0.042000
     12 C12         -3.1140     1.2060    -2.8250 c3         1 0E0      -0.089600
     13 C13         -4.4540    -0.7660    -2.0950 c3         1 0E0       0.135400
     14 O14         -5.2530    -0.6570    -3.2640 oh         1 0E0      -0.603800
     15 C15         -2.4650    -1.0830    -3.5690 c3         1 0E0      -0.089600
     16 C16         -0.7280    -0.0300    -1.3560 c3         1 0E0      -0.082200
     17 C17         -0.6470     0.0450     3.6450 ca         1 0E0      -0.152000
     18 C18          0.0800     0.0450     4.8250 ca         1 0E0      -0.090000
     19 C19          1.4810     0.0180     4.8000 ca         1 0E0      -0.156000
     20 C20          2.1500    -0.0110     3.5860 ca         1 0E0      -0.061000
     21 H2          -2.5910    -0.9000     1.5660 h1         1 0E0       0.056700
     22 H3          -2.5570     0.9290     1.7800 h1         1 0E0       0.056700
     23 H4          -2.2040    -1.5520    -0.8760 h1         1 0E0       0.044700
     24 H5          -2.1400     1.5540    -3.2440 hc         1 0E0       0.044200
     25 H6          -3.9050     1.3400    -3.6030 hc         1 0E0       0.044200
     26 H7          -3.3690     1.8310    -1.9350 hc         1 0E0       0.044200
     27 H8          -4.8860    -0.1460    -1.2640 h1         1 0E0       0.032700
     28 H9          -4.4090    -1.8420    -1.7760 h1         1 0E0       0.032700
     29 H10         -6.1620    -0.8200    -2.9860 ho         1 0E0       0.402000
     30 H11         -3.1790    -1.0700    -4.4290 hc         1 0E0       0.044200
     31 H12         -1.4890    -0.6600    -3.9090 hc         1 0E0       0.044200
     32 H13         -2.3090    -2.1410    -3.2500 hc         1 0E0       0.044200
     33 H14         -0.2360    -0.7240    -2.0890 hc         1 0E0       0.075200
     34 H15         -0.6940     1.0100    -1.7810 hc         1 0E0       0.075200
     35 H16         -1.7470     0.0630     3.6790 ha         1 0E0       0.136000
     36 H17         -0.4460     0.0660     5.7920 ha         1 0E0       0.135000
     37 H18          2.0460     0.0190     5.7440 ha         1 0E0       0.139000
     38 H19          3.2510    -0.0350     3.5410 ha         1 0E0       0.159000
     39 H20          1.8540    -0.0900    -0.9430 hn         1 0E0       0.333500
@<TRIPOS>BOND
     1     1     2 1   
     2     1     7 2   
     3     1    16 1   
     4     2     3 1   
     5     2    39 1   
     6     3     4 2   
     7     3     5 1   
     8     5     6 ar  
     9     5    20 ar  
    10     6     7 1   
    11     6    17 ar  
    12     7     8 1   
    13     8     9 1   
    14     8    21 1   
    15     8    22 1   
    16     9    10 1   
    17    10    11 1   
    18    10    16 1   
    19    10    23 1   
    20    11    12 1   
    21    11    13 1   
    22    11    15 1   
    23    12    24 1   
    24    12    25 1   
    25    12    26 1   
    26    13    14 1   
    27    13    27 1   
    28    13    28 1   
    29    14    29 1   
    30    15    30 1   
    31    15    31 1   
    32    15    32 1   
    33    16    33 1   
    34    16    34 1   
    35    17    18 ar  
    36    17    35 1   
    37    18    19 ar  
    38    18    36 1   
    39    19    20 ar  
    40    19    37 1   
    41    20    38 1   
@<TRIPOS>SUBSTRUCTURE
     1 0E0         1 TEMP              0 ****  ****    0 ROOT
