@<TRIPOS>MOLECULE
molecule
   30    31     1     0     0
SMALL
bcc


@<TRIPOS>ATOM
      1 C1           0.0000     0.0000     0.0000 ca         1 0E1      -0.155300
      2 C2          -0.7320     0.0050    -1.2300 cg         1 0E1       0.248800
      3 N3          -1.3290     0.0180    -2.1970 n1         1 0E1      -0.354800
      4 C4           1.3980     0.0000     0.0000 ca         1 0E1      -0.036000
      5 C5           2.0630     0.0000     1.2170 ca         1 0E1      -0.264600
      6 C6           1.3360     0.0030     2.3900 ca         1 0E1       0.488600
      7 N7           0.0100     0.0010     2.3620 nb         1 0E1      -0.754000
      8 C8          -0.6710    -0.0010     1.2330 ca         1 0E1       0.681600
      9 O9          -2.0250    -0.0040     1.2630 oh         1 0E1      -0.610300
     10 C10          3.5680    -0.0110     1.2180 c3         1 0E1       0.177700
     11 O11          4.0650     0.3530     2.5070 os         1 0E1      -0.374600
     12 C12          3.4830    -0.4140     3.5680 c3         1 0E1       0.165100
     13 C13          4.2450    -0.1490     4.8690 c3         1 0E1      -0.365700
     14 C14          3.6220    -0.9690     6.0000 c3         1 0E1      -0.047100
     15 C15          5.7100    -0.5550     4.6920 c3         1 0E1      -0.047100
     16 C16          2.0240     0.0120     3.7330 c3         1 0E1      -0.135700
     17 H1           1.9400     0.0650    -0.9360 ha         1 0E1       0.153000
     18 H3           3.9000     0.8620     0.6680 h1         1 0E1       0.062700
     19 H4           3.8870    -0.8910     0.6740 h1         1 0E1       0.062700
     20 H5           3.5280    -1.4670     3.3220 h1         1 0E1       0.011700
     21 H6           4.4590    -1.0910     5.3600 hc         1 0E1       0.235700
     22 H7           4.0970    -1.9420     6.0450 hc         1 0E1       0.044200
     23 H8           2.5620    -1.0930     5.8150 hc         1 0E1       0.044200
     24 H9           3.7670    -0.4530     6.9420 hc         1 0E1       0.044200
     25 H10          5.7610    -1.5720     4.3250 hc         1 0E1       0.044200
     26 H11          6.2200    -0.4890     5.6460 hc         1 0E1       0.044200
     27 H12          6.1860     0.1100     3.9820 hc         1 0E1       0.044200
     28 H13          1.6950     0.9050     4.2510 hc         1 0E1       0.074200
     29 H14          1.7010    -0.8770     4.2600 hc         1 0E1       0.074200
     30 H2          -2.3300     0.7190     1.7860 ho         1 0E1       0.442000
@<TRIPOS>BOND
     1     3     2 3   
     2     2     1 1   
     3     9     8 1   
     4     1     8 ar  
     5     1     4 ar  
     6     8     7 ar  
     7     4     5 ar  
     8     7     6 ar  
     9     5     6 ar  
    10     5    10 1   
    11     6    16 1   
    12    10    11 1   
    13    16    12 1   
    14    11    12 1   
    15    12    13 1   
    16    13    15 1   
    17    13    14 1   
    18     4    17 1   
    19    10    18 1   
    20    10    19 1   
    21    12    20 1   
    22    13    21 1   
    23    14    22 1   
    24    14    23 1   
    25    14    24 1   
    26    15    25 1   
    27    15    26 1   
    28    15    27 1   
    29    16    28 1   
    30    16    29 1   
    31     9    30 1   
@<TRIPOS>SUBSTRUCTURE
     1 0E1         1 TEMP              0 ****  ****    0 ROOT
