@<TRIPOS>MOLECULE
0E1
   30    31     1     0     0
SMALL
bcc


@<TRIPOS>ATOM
      1 C1           0.0800     0.0450     0.0260 ca         1 0E1      -0.154300
      2 C2          -0.6590     0.0440    -1.1800 cg         1 0E1       0.250800
      3 N3          -1.2680     0.0430    -2.1710 n1         1 0E1      -0.354800
      4 C4           1.4790     0.0800     0.0230 ca         1 0E1      -0.020000
      5 C5           2.1750     0.0800     1.2330 ca         1 0E1      -0.273600
      6 C6           1.4430     0.0460     2.4470 ca         1 0E1       0.491600
      7 N7           0.0920     0.0110     2.4810 nb         1 0E1      -0.747000
      8 C8          -0.5680     0.0110     1.2940 ca         1 0E1       0.673600
      9 O9          -1.9380    -0.0250     1.2870 oh         1 0E1      -0.599300
     10 C10          3.6640     0.0960     1.2340 c3         1 0E1       0.183700
     11 O11          4.2290     0.4260     2.4950 os         1 0E1      -0.407600
     12 C12          3.6490    -0.3200     3.5720 c3         1 0E1       0.140100
     13 C13          4.4890     0.0090     4.8140 c3         1 0E1      -0.062700
     14 C14          5.9080    -0.4850     4.6250 c3         1 0E1      -0.093100
     15 C15          3.8760    -0.6020     6.0550 c3         1 0E1      -0.093100
     16 C16          2.1860     0.0750     3.7520 c3         1 0E1      -0.167700
     17 H1           2.0260     0.1090    -0.9330 ha         1 0E1       0.155000
     18 H3           4.0500    -0.9110     0.9100 h1         1 0E1       0.060700
     19 H4           4.0620     0.8910     0.5450 h1         1 0E1       0.060700
     20 H5           3.7230    -1.4200     3.3410 h1         1 0E1       0.046700
     21 H6           4.5120     1.1300     4.9260 hc         1 0E1       0.064700
     22 H7           5.9300    -1.5990     4.5550 hc         1 0E1       0.039200
     23 H8           6.3400    -0.0600     3.6860 hc         1 0E1       0.039200
     24 H9           6.5420    -0.1710     5.4880 hc         1 0E1       0.039200
     25 H10          3.6820    -1.6910     5.9060 hc         1 0E1       0.039200
     26 H11          4.5730    -0.4820     6.9200 hc         1 0E1       0.039200
     27 H12          2.9110    -0.1000     6.3110 hc         1 0E1       0.039200
     28 H13          2.1260     1.1180     4.1660 hc         1 0E1       0.081700
     29 H14          1.7070    -0.6180     4.4940 hc         1 0E1       0.081700
     30 H2          -2.2710    -0.0420     2.2010 ho         1 0E1       0.448000
@<TRIPOS>BOND
     1     1     2 1   
     2     1     4 ar  
     3     1     8 ar  
     4     2     3 3   
     5     4     5 ar  
     6     4    17 1   
     7     5     6 ar  
     8     5    10 1   
     9     6     7 ar  
    10     6    16 1   
    11     7     8 ar  
    12     8     9 1   
    13     9    30 1   
    14    10    11 1   
    15    10    18 1   
    16    10    19 1   
    17    11    12 1   
    18    12    13 1   
    19    12    16 1   
    20    12    20 1   
    21    13    14 1   
    22    13    15 1   
    23    13    21 1   
    24    14    22 1   
    25    14    23 1   
    26    14    24 1   
    27    15    25 1   
    28    15    26 1   
    29    15    27 1   
    30    16    28 1   
    31    16    29 1   
@<TRIPOS>SUBSTRUCTURE
     1 0E1         1 TEMP              0 ****  ****    0 ROOT
