@<TRIPOS>MOLECULE
0E1
   30    32     1     0     0
SMALL
bcc


@<TRIPOS>ATOM
      1 C1           0.0000     0.0000     0.0000 c2         1 0E1      -0.047000
      2 C2          -0.7320     0.0050    -1.2300 c1         1 0E1      -0.086000
      3 N3          -1.3290     0.0180    -2.1970 n1         1 0E1      -0.048000
      4 C4           1.3980     0.0000     0.0000 c2         1 0E1      -0.012000
      5 C5           2.0630     0.0000     1.2170 c2         1 0E1      -0.200000
      6 C6           1.3360     0.0030     2.3900 c2         1 0E1       0.019000
      7 N7           0.0100     0.0010     2.3620 n2         1 0E1      -0.112000
      8 C8          -0.6710    -0.0010     1.2330 c2         1 0E1       0.143000
      9 O9          -2.0250    -0.0040     1.2630 oh         1 0E1      -0.230000
     10 C10          3.5680    -0.0110     1.2180 c3         1 0E1       0.109000
     11 O11          4.0650     0.3530     2.5070 os         1 0E1      -0.220000
     12 C12          3.4830    -0.4140     3.5680 c3         1 0E1       0.090000
     13 C13          4.2450    -0.1490     4.8690 c3         1 0E1      -0.410000
     14 C14          3.6220    -0.9690     6.0000 DU         1 0E1       0.019000
     15 C15          5.7100    -0.5550     4.6920 c3         1 0E1      -0.066000
     16 C16          2.0240     0.0120     3.7330 c3         1 0E1      -0.072000
     17 H1           1.9400     0.0650    -0.9360 ha         1 0E1       0.121000
     18 H3           3.9000     0.8620     0.6680 h1         1 0E1       0.059000
     19 H4           3.8870    -0.8910     0.6740 h1         1 0E1       0.059000
     20 H5           3.5280    -1.4670     3.3220 h1         1 0E1       0.026000
     21 H6           4.4590    -1.0910     5.3600 DU         1 0E1       0.211000
     22 H7           4.0970    -1.9420     6.0450 ha         1 0E1       0.045000
     23 H8           2.5620    -1.0930     5.8150 ha         1 0E1       0.045000
     24 H9           3.7670    -0.4530     6.9420 ha         1 0E1       0.045000
     25 H10          5.7610    -1.5720     4.3250 hc         1 0E1       0.043333
     26 H11          6.2200    -0.4890     5.6460 hc         1 0E1       0.043333
     27 H12          6.1860     0.1100     3.9820 hc         1 0E1       0.043333
     28 H13          1.6950     0.9050     4.2510 hc         1 0E1       0.081500
     29 H14          1.7010    -0.8770     4.2600 hc         1 0E1       0.081500
     30 H2          -2.3300     0.7190     1.7860 ho         1 0E1       0.219000
@<TRIPOS>BOND
     1     1     2 1   
     2     1     4 1   
     3     1     8 1   
     4     2     3 1   
     5     4     5 1   
     6     4    17 1   
     7     5     6 1   
     8     5    10 1   
     9     6     7 1   
    10     6    16 1   
    11     7     8 1   
    12     8     9 1   
    13     9    30 1   
    14    10    11 1   
    15    10    18 1   
    16    10    19 1   
    17    11    12 1   
    18    12    13 1   
    19    12    16 1   
    20    12    20 1   
    21    13    14 1   
    22    13    15 1   
    23    13    21 1   
    24    14    21 1   
    25    14    22 1   
    26    14    23 1   
    27    14    24 1   
    28    15    25 1   
    29    15    26 1   
    30    15    27 1   
    31    16    28 1   
    32    16    29 1   
@<TRIPOS>SUBSTRUCTURE
     1 0E1         1 TEMP              0 ****  ****    0 ROOT
