@<TRIPOS>MOLECULE
molecule
   40    42     1     0     0
SMALL
bcc


@<TRIPOS>ATOM
      1 C1           0.0000     0.0000     0.0000 ca         1 0EC       0.907900
      2 N2           1.3190     0.0000     0.0000 nb         1 0EC      -0.789000
      3 C3           1.9990     0.0000     1.1570 ca         1 0EC       0.506600
      4 C4           1.2740     0.0010     2.3750 ca         1 0EC      -0.338600
      5 C5          -0.1410     0.0010     2.3110 ca         1 0EC       0.767200
      6 N5          -0.8990     0.0030     3.4640 nv         1 0EC      -1.014500
      7 N6          -0.7190     0.0070     1.1190 nb         1 0EC      -0.853000
      8 C7           3.3990    -0.0000     1.1910 ca         1 0EC      -0.278300
      9 C8           4.0490     0.0010     2.4050 ca         1 0EC       0.169100
     10 O8           5.4080     0.0010     2.4400 os         1 0EC      -0.309900
     11 C9           3.3250     0.0020     3.6040 ca         1 0EC       0.103100
     12 O9           3.9900     0.0040     4.7920 os         1 0EC      -0.313900
     13 C10          1.9590    -0.0000     3.5950 ca         1 0EC      -0.160000
     14 N11         -0.6630    -0.0010    -1.2150 nh         1 0EC      -0.684300
     15 C12         -2.1200     0.0010    -1.0190 c3         1 0EC       0.177800
     16 C13         -2.8150     0.0800    -2.3810 c3         1 0EC       0.152300
     17 N14         -2.3970    -1.0600    -3.2070 n7         1 0EC      -0.823200
     18 C15         -0.9420    -1.0620    -3.4030 c3         1 0EC       0.152300
     19 C16         -0.2470    -1.1410    -2.0420 c3         1 0EC       0.177800
     20 C8A          6.0890    -0.0000     1.1830 c3         1 0EC       0.123700
     21 C9A          3.1960     0.0050     5.9800 c3         1 0EC       0.127700
     22 H7           3.9630     0.1350     0.2750 ha         1 0EC       0.162000
     23 H10          1.4090     0.0010     4.5290 ha         1 0EC       0.137000
     24 HN14        -2.8540    -1.0120    -4.0970 hn         1 0EC       0.353800
     25 H12         -2.4170    -0.9120    -0.5160 h1         1 0EC       0.059950
     26 H12A        -2.4020     0.8580    -0.4200 h1         1 0EC       0.059950
     27 H13         -3.8880     0.0490    -2.2400 h1         1 0EC       0.040700
     28 H13A        -2.5360     1.0030    -2.8740 h1         1 0EC       0.040700
     29 HN5         -1.7850     0.4680     3.4800 hn         1 0EC       0.443800
     30 H15         -0.6600    -1.9190    -4.0020 h1         1 0EC       0.040700
     31 HN5A        -0.5760    -0.4850     4.2760 hn         1 0EC       0.443800
     32 H15A        -0.6450    -0.1500    -3.9070 h1         1 0EC       0.040700
     33 H16          0.8270    -1.1100    -2.1840 h1         1 0EC       0.059950
     34 H16A        -0.5250    -2.0650    -1.5490 h1         1 0EC       0.059950
     35 H8A          5.6900    -0.7900     0.5570 h1         1 0EC       0.046033
     36 H8AA         5.9450     0.9550     0.6940 h1         1 0EC       0.046033
     37 H8AB         7.1460    -0.1680     1.3460 h1         1 0EC       0.046033
     38 H9A          3.8440     0.0030     6.8480 h1         1 0EC       0.040033
     39 H9AA         2.5720     0.8900     5.9970 h1         1 0EC       0.040033
     40 H9AB         2.5690    -0.8790     5.9960 h1         1 0EC       0.040033
@<TRIPOS>BOND
     1     7     1 ar  
     2     1    14 1   
     3     1     2 ar  
     4     3     2 ar  
     5     4     3 ar  
     6     3     8 ar  
     7     5     4 ar  
     8    13     4 ar  
     9     6     5 1   
    10     5     7 ar  
    11    31     6 1   
    12     6    29 1   
    13     9     8 ar  
    14     8    22 1   
    15    11     9 ar  
    16     9    10 1   
    17    20    10 1   
    18    13    11 ar  
    19    12    11 1   
    20    21    12 1   
    21    23    13 1   
    22    19    14 1   
    23    14    15 1   
    24    16    15 1   
    25    15    25 1   
    26    15    26 1   
    27    17    16 1   
    28    27    16 1   
    29    16    28 1   
    30    18    17 1   
    31    17    24 1   
    32    32    18 1   
    33    30    18 1   
    34    18    19 1   
    35    33    19 1   
    36    19    34 1   
    37    35    20 1   
    38    37    20 1   
    39    20    36 1   
    40    40    21 1   
    41    39    21 1   
    42    21    38 1   
@<TRIPOS>SUBSTRUCTURE
     1 0EC         1 TEMP              0 ****  ****    0 ROOT
