@<TRIPOS>MOLECULE
0EC
   40    42     1     0     0
SMALL
bcc


@<TRIPOS>ATOM
      1 C1          -0.0030     0.2200     0.0790 ca         1 0EC       0.904900
      2 N2           1.3190     0.5610     0.1060 nb         1 0EC      -0.793000
      3 C3           1.9660     0.4860     1.3140 ca         1 0EC       0.507600
      4 C4           1.3060     0.0920     2.5180 ca         1 0EC      -0.346600
      5 C5          -0.1140    -0.2180     2.3900 ca         1 0EC       0.735200
      6 N5          -0.8300    -0.6530     3.4930 nv         1 0EC      -0.953500
      7 N6          -0.7580    -0.1300     1.2060 nb         1 0EC      -0.826000
      8 C7           3.3570     0.8200     1.3710 ca         1 0EC      -0.281300
      9 C8           4.0410     0.7450     2.5660 ca         1 0EC       0.145100
     10 O8           5.3750     1.0540     2.7200 os         1 0EC      -0.320900
     11 C9           3.3710     0.3350     3.7640 ca         1 0EC       0.049100
     12 O9           4.0620     0.1260     4.9460 os         1 0EC      -0.328900
     13 C10          2.0270     0.0210     3.7280 ca         1 0EC      -0.069000
     14 N11         -0.6570     0.1220    -1.1860 nh         1 0EC      -0.702300
     15 C12         -0.0380     0.7790    -2.3300 c3         1 0EC       0.183300
     16 C13         -0.4580     2.2550    -2.5040 c3         1 0EC       0.129800
     17 N14         -1.8970     2.4360    -2.4790 n7         1 0EC      -0.823200
     18 C15         -2.5600     1.7540    -1.3850 c3         1 0EC       0.129800
     19 C16         -2.1030     0.2860    -1.2280 c3         1 0EC       0.183300
     20 C8A          6.0970     1.3450     1.5270 c3         1 0EC       0.109700
     21 C9A          4.5750     1.3180     5.5420 c3         1 0EC       0.114700
     22 H7           3.8610     1.1260     0.4420 ha         1 0EC       0.158000
     23 H10          1.5520    -0.3090     4.6640 ha         1 0EC       0.142000
     24 HN14        -2.1190     3.4140    -2.4590 hn         1 0EC       0.363800
     25 H12          1.0830     0.7290    -2.2820 h1         1 0EC       0.076200
     26 H12A        -0.3700     0.1930    -3.2350 h1         1 0EC       0.076200
     27 H13          0.0670     2.8690    -1.7150 h1         1 0EC       0.037450
     28 H13A        -0.0930     2.6050    -3.5100 h1         1 0EC       0.037450
     29 HN5         -0.4680    -0.4340     4.3880 hn         1 0EC       0.428800
     30 H15         -2.4110     2.2800    -0.3970 h1         1 0EC       0.037450
     31 HN5A        -1.8150    -0.7500     3.4150 hn         1 0EC       0.428800
     32 H15A        -3.6630     1.7530    -1.6090 h1         1 0EC       0.037450
     33 H16         -2.4530    -0.3050    -2.1230 h1         1 0EC       0.076200
     34 H16A        -2.5990    -0.1460    -0.3180 h1         1 0EC       0.076200
     35 H8A          5.7070     2.2770     1.0510 h1         1 0EC       0.048700
     36 H8AA         7.1450     1.4940     1.8910 h1         1 0EC       0.048700
     37 H8AB         6.0440     0.4870     0.8140 h1         1 0EC       0.048700
     38 H9A          5.0870     0.9500     6.4650 h1         1 0EC       0.042700
     39 H9AA         5.3020     1.8190     4.8580 h1         1 0EC       0.042700
     40 H9AB         3.7400     2.0140     5.8000 h1         1 0EC       0.042700
@<TRIPOS>BOND
     1     1     2 ar  
     2     1     7 ar  
     3     1    14 1   
     4     2     3 ar  
     5     3     4 ar  
     6     3     8 ar  
     7     4     5 ar  
     8     4    13 ar  
     9     5     6 1   
    10     5     7 ar  
    11     6    29 1   
    12     6    31 1   
    13     8     9 ar  
    14     8    22 1   
    15     9    10 1   
    16     9    11 ar  
    17    10    20 1   
    18    11    12 1   
    19    11    13 ar  
    20    12    21 1   
    21    13    23 1   
    22    14    15 1   
    23    14    19 1   
    24    15    16 1   
    25    15    25 1   
    26    15    26 1   
    27    16    17 1   
    28    16    27 1   
    29    16    28 1   
    30    17    18 1   
    31    17    24 1   
    32    18    19 1   
    33    18    30 1   
    34    18    32 1   
    35    19    33 1   
    36    19    34 1   
    37    20    35 1   
    38    20    36 1   
    39    20    37 1   
    40    21    38 1   
    41    21    39 1   
    42    21    40 1   
@<TRIPOS>SUBSTRUCTURE
     1 0EC         1 TEMP              0 ****  ****    0 ROOT
