@<TRIPOS>MOLECULE
0EU
   73    77     1     0     0
SMALL
bcc


@<TRIPOS>ATOM
      1 C1          -0.2030    -0.2440     0.1310 ca         1 0EU      -0.054800
      2 C2           1.1260    -0.3190    -0.3270 ca         1 0EU      -0.099000
      3 C3           2.1570    -0.4030     0.5890 ca         1 0EU      -0.106000
      4 C4           1.8960    -0.4110     1.9760 ca         1 0EU      -0.092000
      5 C5           0.6020    -0.3070     2.4500 ca         1 0EU      -0.089000
      6 C6          -0.4580    -0.2050     1.5350 ca         1 0EU      -0.107100
      7 S7          -2.0820     0.0060     1.8760 ss         1 0EU       0.225500
      8 C8          -2.5100     0.0850     0.2460 cc         1 0EU      -0.056800
      9 N9          -3.8170     0.4580    -0.1440 ns         1 0EU      -0.331100
     10 C10         -4.5550    -0.4870    -0.8710 c          1 0EU       0.634100
     11 O10         -4.7720    -1.6640    -0.5920 o          1 0EU      -0.446100
     12 N11         -5.2950    -0.0020    -2.1270 ny         1 0EU      -0.684800
     13 C14         -1.4250    -0.1310    -0.6120 cd         1 0EU      -0.133400
     14 C15         -1.6160    -0.1740    -2.0810 c          1 0EU       0.703300
     15 N15         -0.8520    -0.9830    -2.8870 n          1 0EU      -0.424800
     16 O15         -2.5140     0.5590    -2.5910 o          1 0EU      -0.736100
     17 C16         -0.9790    -0.9030    -4.3340 c3         1 0EU       0.072500
     18 C17         -1.5550    -2.1620    -4.9770 c3         1 0EU      -0.102900
     19 C18         -0.1930    -2.1860    -2.4180 c3         1 0EU       0.072500
     20 C19         -0.7600    -3.4740    -3.0210 c3         1 0EU      -0.102900
     21 C20         -0.7480    -3.4050    -4.5540 c3         1 0EU       0.187500
     22 N20         -1.2620    -4.6030    -5.2350 n3         1 0EU      -0.730600
     23 C21         -0.6930    -4.7180    -6.5760 c3         1 0EU       0.163800
     24 C22         -1.2110    -5.9250    -7.3510 c3         1 0EU      -0.077400
     25 C23         -1.0140    -7.2010    -6.5660 c3         1 0EU      -0.070400
     26 C24         -1.1220    -5.8260    -4.4600 c3         1 0EU       0.179800
     27 C25         -1.6400    -7.0840    -5.1820 c3         1 0EU      -0.130000
     28 C26         -1.2520    -8.2940    -4.3420 c          1 0EU       0.713600
     29 O26         -0.1590    -8.6800    -3.9450 o          1 0EU      -0.565500
     30 O27         -2.3400    -9.0480    -3.9800 os         1 0EU      -0.398900
     31 C28         -3.1710    -7.1560    -5.2260 c3         1 0EU      -0.100400
     32 C29         -3.5660    -8.4660    -4.5130 c3         1 0EU       0.143800
     33 C30         -4.1640    -9.4790    -5.4740 c3         1 0EU      -0.101100
     34 C31         -4.4900    -8.2190    -3.3330 c3         1 0EU      -0.101100
     35 C35         -6.3700     0.9810    -1.8130 c3         1 0EU       0.111800
     36 C36         -7.2130     1.3280    -3.0230 c3         1 0EU      -0.136100
     37 H2           1.3420    -0.2890    -1.4060 ha         1 0EU       0.151000
     38 H3           3.2010    -0.4590     0.2410 ha         1 0EU       0.154000
     39 H4           2.7390    -0.4890     2.6820 ha         1 0EU       0.157000
     40 H5           0.3980    -0.2960     3.5320 ha         1 0EU       0.155000
     41 HN9         -3.7970     1.3820    -0.5570 hn         1 0EU       0.327500
     42 HN11        -5.7090    -0.8270    -2.5780 hn         1 0EU       0.475800
     43 H16         -1.6180    -0.0180    -4.6110 h1         1 0EU       0.072200
     44 H16A         0.0600    -0.7250    -4.7390 h1         1 0EU       0.072200
     45 H17         -2.6300    -2.2920    -4.6910 hc         1 0EU       0.061950
     46 H17A        -1.5130    -2.0260    -6.0890 hc         1 0EU       0.061950
     47 H18          0.8980    -2.1040    -2.6990 h1         1 0EU       0.072200
     48 H18A        -0.2640    -2.2560    -1.2960 h1         1 0EU       0.072200
     49 H19         -0.1140    -4.3160    -2.6580 hc         1 0EU       0.061950
     50 H19A        -1.8020    -3.6480    -2.6480 hc         1 0EU       0.061950
     51 H20          0.3320    -3.2220    -4.8590 h1         1 0EU       0.035700
     52 H21         -0.9650    -3.7830    -7.1420 h1         1 0EU       0.036700
     53 H21A         0.4360    -4.7780    -6.5380 h1         1 0EU       0.036700
     54 H22         -0.6530    -5.9870    -8.3220 hc         1 0EU       0.055700
     55 H22A        -2.2980    -5.7860    -7.5910 hc         1 0EU       0.055700
     56 H23         -1.4700    -8.0650    -7.1160 hc         1 0EU       0.064200
     57 H23A         0.0830    -7.4130    -6.4480 hc         1 0EU       0.064200
     58 H24         -0.0450    -6.0250    -4.1770 h1         1 0EU       0.047700
     59 H24A        -1.7210    -5.7080    -3.5120 h1         1 0EU       0.047700
     60 H28         -3.6270    -6.2770    -4.7100 hc         1 0EU       0.067700
     61 H28A        -3.5420    -7.1620    -6.2810 hc         1 0EU       0.067700
     62 H30         -4.3240   -10.4520    -4.9490 hc         1 0EU       0.051533
     63 H30A        -5.1420    -9.1020    -5.8560 hc         1 0EU       0.051533
     64 H30B        -3.4740    -9.6510    -6.3350 hc         1 0EU       0.051533
     65 H31         -5.4590    -7.8050    -3.6980 hc         1 0EU       0.051533
     66 H31A        -4.6800    -9.1780    -2.7930 hc         1 0EU       0.051533
     67 H31B        -4.0260    -7.4980    -2.6190 hc         1 0EU       0.051533
     68 H35         -7.0190     0.5310    -1.0060 hx         1 0EU       0.104700
     69 H35A        -5.8850     1.9150    -1.4070 hx         1 0EU       0.104700
     70 H36         -7.7380     0.4300    -3.4330 hc         1 0EU       0.080033
     71 H36A        -7.9890     2.0700    -2.7040 hc         1 0EU       0.080033
     72 H36B        -6.6000     1.7930    -3.8340 hc         1 0EU       0.080033
     73 H112        -4.6060     0.4160    -2.7770 hn         1 0EU       0.475800
@<TRIPOS>BOND
     1     1     2 ar  
     2     1     6 ar  
     3     1    13 1   
     4     2     3 ar  
     5     2    37 1   
     6     3     4 ar  
     7     3    38 1   
     8     4     5 ar  
     9     4    39 1   
    10     5     6 ar  
    11     5    40 1   
    12     6     7 1   
    13     7     8 1   
    14     8     9 1   
    15     8    13 2   
    16     9    10 1   
    17     9    41 1   
    18    10    11 2   
    19    10    12 1   
    20    12    35 1   
    21    12    42 1   
    22    12    73 1   
    23    13    14 1   
    24    14    15 1   
    25    14    16 2   
    26    15    17 1   
    27    15    19 1   
    28    17    18 1   
    29    17    43 1   
    30    17    44 1   
    31    18    21 1   
    32    18    45 1   
    33    18    46 1   
    34    19    20 1   
    35    19    47 1   
    36    19    48 1   
    37    20    21 1   
    38    20    49 1   
    39    20    50 1   
    40    21    22 1   
    41    21    51 1   
    42    22    23 1   
    43    22    26 1   
    44    23    24 1   
    45    23    52 1   
    46    23    53 1   
    47    24    25 1   
    48    24    54 1   
    49    24    55 1   
    50    25    27 1   
    51    25    56 1   
    52    25    57 1   
    53    26    27 1   
    54    26    58 1   
    55    26    59 1   
    56    27    28 1   
    57    27    31 1   
    58    28    29 2   
    59    28    30 1   
    60    30    32 1   
    61    31    32 1   
    62    31    60 1   
    63    31    61 1   
    64    32    33 1   
    65    32    34 1   
    66    33    62 1   
    67    33    63 1   
    68    33    64 1   
    69    34    65 1   
    70    34    66 1   
    71    34    67 1   
    72    35    36 1   
    73    35    68 1   
    74    35    69 1   
    75    36    70 1   
    76    36    71 1   
    77    36    72 1   
@<TRIPOS>SUBSTRUCTURE
     1 0EU         1 TEMP              0 ****  ****    0 ROOT
