@<TRIPOS>MOLECULE
0EU
   73    77     1     0     0
SMALL
bcc


@<TRIPOS>ATOM
      1 C1           0.0000     0.0000     0.0000 ca         1 0EU      -0.068800
      2 C2           1.4080     0.0000     0.0000 ca         1 0EU      -0.049000
      3 C3           2.1040     0.0000     1.1840 ca         1 0EU      -0.082000
      4 C4           1.4260     0.0010     2.3940 ca         1 0EU      -0.058000
      5 C5           0.0500     0.0010     2.4130 ca         1 0EU      -0.054000
      6 C6          -0.6750     0.0010     1.2180 ca         1 0EU       0.031900
      7 S7          -2.4150     0.0030     0.9570 ss         1 0EU      -0.098500
      8 C8          -2.2350     0.0010    -0.7860 cc         1 0EU      -0.097800
      9 N9          -3.2860     0.0020    -1.6830 ns         1 0EU       0.121900
     10 C10         -4.5570     0.0020    -1.2310 c          1 0EU       0.259100
     11 O10         -4.7760     0.0030    -0.0360 o          1 0EU      -0.512100
     12 N11         -5.5830     0.0020    -2.1050 ny         1 0EU       0.191200
     13 C14         -0.9180     0.0060    -1.1400 cd         1 0EU      -0.081400
     14 C15         -0.4650     0.0120    -2.5300 c          1 0EU       0.588300
     15 N15         -0.2560     1.1830    -3.1660 n          1 0EU      -0.148800
     16 O15         -0.2770    -1.0390    -3.1140 o          1 0EU      -0.621100
     17 C16          0.1980     1.2050    -4.5630 c3         1 0EU       0.045500
     18 C17          1.4590     2.0720    -4.6560 c3         1 0EU      -0.051900
     19 C18         -0.4850     2.4600    -2.4760 c3         1 0EU       0.045500
     20 C19          0.7800     3.3150    -2.5880 c3         1 0EU      -0.051900
     21 C20          1.1680     3.4540    -4.0680 c3         1 0EU       0.131500
     22 N20          2.3640     4.2980    -4.1860 n3         1 0EU      -0.532600
     23 C21          2.8130     4.3810    -5.5810 c3         1 0EU       0.139800
     24 C22          4.1420     5.1370    -5.6500 c3         1 0EU      -0.027400
     25 C23          3.9520     6.5460    -5.0780 c3         1 0EU      -0.014400
     26 C24          2.1230     5.6340    -3.6260 c3         1 0EU       0.162800
     27 C25          3.4170     6.4410    -3.6520 c3         1 0EU      -0.181000
     28 C26          3.1980     7.8150    -3.0690 c          1 0EU       0.805600
     29 O26          2.4660     8.6580    -3.5290 o          1 0EU      -0.603500
     30 O27          3.9390     7.9570    -1.9580 os         1 0EU      -0.382900
     31 C28          4.4710     5.7780    -2.7450 c3         1 0EU      -0.058400
     32 C29          5.0320     6.9890    -1.9640 c3         1 0EU       0.152800
     33 C30          6.2540     7.5660    -2.6790 c3         1 0EU      -0.006600
     34 C31          5.3910     6.5830    -0.5330 c3         1 0EU      -0.006600
     35 C35         -6.9620     0.0030    -1.6140 c3         1 0EU      -0.013200
     36 C36         -7.9260     0.0030    -2.8020 c3         1 0EU      -0.001100
     37 H2           1.9460    -0.0000    -0.9400 ha         1 0EU       0.117000
     38 H3           3.1870    -0.0000     1.1730 ha         1 0EU       0.119000
     39 H4           1.9810     0.0000     3.3240 ha         1 0EU       0.119000
     40 H5          -0.4740     0.0010     3.3610 ha         1 0EU       0.121000
     41 HN9         -3.1050    -0.0410    -2.6660 hn         1 0EU       0.170500
     42 HN11        -5.4780    -0.8120    -2.6770 hn         1 0EU       0.243300
     43 H16         -0.5780     1.6260    -5.1900 h1         1 0EU       0.029950
     44 H16A         0.4270     0.1970    -4.8860 h1         1 0EU       0.029950
     45 H17          1.7480     2.1760    -5.6950 hc         1 0EU       0.041950
     46 H17A         2.2600     1.6030    -4.0970 hc         1 0EU       0.041950
     47 H18         -0.7050     2.2730    -1.4320 h1         1 0EU       0.029950
     48 H18A        -1.3150     2.9790    -2.9400 h1         1 0EU       0.029950
     49 H19          1.5880     2.8360    -2.0480 hc         1 0EU       0.041950
     50 H19A         0.5910     4.2960    -2.1720 hc         1 0EU       0.041950
     51 H20          0.3480     3.9070    -4.6110 h1         1 0EU       0.010700
     52 H21          2.0690     4.9090    -6.1660 h1         1 0EU       0.016700
     53 H21A         2.9470     3.3810    -5.9750 h1         1 0EU       0.016700
     54 H22          4.8880     4.6090    -5.0670 hc         1 0EU       0.027200
     55 H22A         4.4640     5.2060    -6.6820 hc         1 0EU       0.027200
     56 H23          3.2420     7.0900    -5.6900 hc         1 0EU       0.032200
     57 H23A         4.9030     7.0640    -5.0700 hc         1 0EU       0.032200
     58 H24          1.3710     6.1420    -4.2180 h1         1 0EU       0.023200
     59 H24A         1.7800     5.5380    -2.6030 h1         1 0EU       0.023200
     60 H28          5.2480     5.3090    -3.3370 hc         1 0EU       0.045700
     61 H28A         4.0070     5.0680    -2.0710 hc         1 0EU       0.045700
     62 H30          6.8780     6.7570    -3.0390 hc         1 0EU       0.017533
     63 H30A         5.9300     8.1720    -3.5170 hc         1 0EU       0.017533
     64 H30B         6.8210     8.1790    -1.9890 hc         1 0EU       0.017533
     65 H31          6.1350     5.7960    -0.5570 hc         1 0EU       0.017533
     66 H31A         5.7880     7.4400    -0.0040 hc         1 0EU       0.017533
     67 H31B         4.5030     6.2250    -0.0260 hc         1 0EU       0.017533
     68 H35         -7.1310     0.8890    -1.0130 hx         1 0EU       0.093200
     69 H35A        -7.1320    -0.8800    -1.0110 hx         1 0EU       0.093200
     70 H36         -7.7650     0.8920    -3.3990 hc         1 0EU       0.037033
     71 H36A        -7.7500    -0.8770    -3.4100 hc         1 0EU       0.037033
     72 H36B        -8.9470    -0.0080    -2.4390 hc         1 0EU       0.037033
     73 H112        -5.4770     0.8160    -2.6770 hn         1 0EU       0.243300
@<TRIPOS>BOND
     1     1     2 ar  
     2     1     6 ar  
     3     1    13 1   
     4     2     3 ar  
     5     2    37 1   
     6     3     4 ar  
     7     3    38 1   
     8     4     5 ar  
     9     4    39 1   
    10     5     6 ar  
    11     5    40 1   
    12     6     7 1   
    13     7     8 1   
    14     8     9 1   
    15     8    13 2   
    16     9    10 1   
    17     9    41 1   
    18    10    11 2   
    19    10    12 1   
    20    12    35 1   
    21    12    42 1   
    22    12    73 1   
    23    13    14 1   
    24    14    15 1   
    25    14    16 2   
    26    15    17 1   
    27    15    19 1   
    28    17    18 1   
    29    17    43 1   
    30    17    44 1   
    31    18    21 1   
    32    18    45 1   
    33    18    46 1   
    34    19    20 1   
    35    19    47 1   
    36    19    48 1   
    37    20    21 1   
    38    20    49 1   
    39    20    50 1   
    40    21    22 1   
    41    21    51 1   
    42    22    23 1   
    43    22    26 1   
    44    23    24 1   
    45    23    52 1   
    46    23    53 1   
    47    24    25 1   
    48    24    54 1   
    49    24    55 1   
    50    25    27 1   
    51    25    56 1   
    52    25    57 1   
    53    26    27 1   
    54    26    58 1   
    55    26    59 1   
    56    27    28 1   
    57    27    31 1   
    58    28    29 2   
    59    28    30 1   
    60    30    32 1   
    61    31    32 1   
    62    31    60 1   
    63    31    61 1   
    64    32    33 1   
    65    32    34 1   
    66    33    62 1   
    67    33    63 1   
    68    33    64 1   
    69    34    65 1   
    70    34    66 1   
    71    34    67 1   
    72    35    36 1   
    73    35    68 1   
    74    35    69 1   
    75    36    70 1   
    76    36    71 1   
    77    36    72 1   
@<TRIPOS>SUBSTRUCTURE
     1 0EU         1 TEMP              0 ****  ****    0 ROOT
