@<TRIPOS>MOLECULE
molecule
   65    69     1     0     0
SMALL
bcc


@<TRIPOS>ATOM
      1 C1           0.0000     0.0000     0.0000 c3         1 0EV       0.159800
      2 N1          -0.4890     0.1220    -1.3790 n7         1 0EV      -0.827200
      3 C2          -1.9580     0.1260    -1.4180 c3         1 0EV       0.159800
      4 C3          -2.4290     0.2520    -2.8680 c3         1 0EV      -0.026100
      5 C4          -3.9360     0.2560    -2.9080 ca         1 0EV      -0.068300
      6 C5          -4.6340     1.4570    -2.8210 ca         1 0EV       0.176400
      7 N2          -3.9850     2.6440    -2.7000 nc         1 0EV      -0.643100
      8 C6          -4.6300     3.7670    -2.6190 cd         1 0EV       0.491800
      9 N3          -5.9870     3.8540    -2.6480 ns         1 0EV      -0.483400
     10 C7          -6.7480     2.7410    -2.7650 c          1 0EV       0.710100
     11 C8          -6.0510     1.4510    -2.8600 ca         1 0EV      -0.203600
     12 C9          -6.7470     0.2540    -2.9830 ca         1 0EV      -0.016000
     13 C10         -6.0400    -0.9430    -3.0680 ca         1 0EV       0.114400
     14 C11         -4.6300    -0.9330    -3.0370 ca         1 0EV      -0.061200
     15 N4          -4.2370    -2.2560    -3.1400 na         1 0EV      -0.295300
     16 C12         -5.3710    -3.0130    -3.2280 cc         1 0EV       0.681700
     17 N5          -6.4280    -2.2410    -3.1920 nd         1 0EV      -0.668100
     18 N6          -5.3990    -4.3860    -3.3440 nu         1 0EV      -0.879200
     19 C13         -4.1460    -5.1440    -3.3810 c3         1 0EV       0.235800
     20 O1          -7.9640     2.8070    -2.7930 o          1 0EV      -0.622500
     21 H1          -0.3610     0.8360     0.5860 h1         1 0EV       0.032200
     22 H2          -0.3610    -0.9260     0.4310 h1         1 0EV       0.032200
     23 H3          -0.1420     0.9690    -1.7830 hn         1 0EV       0.354800
     24 H5          -2.3320     0.9630    -0.8420 h1         1 0EV       0.036700
     25 H6          -2.3330    -0.7990    -0.9960 h1         1 0EV       0.036700
     26 H7          -2.0550     1.1770    -3.2900 hc         1 0EV       0.058200
     27 H8          -2.0550    -0.5850    -3.4440 hc         1 0EV       0.058200
     28 H9          -4.0580     4.6820    -2.5240 h5         1 0EV       0.050800
     29 H10         -6.4280     4.7500    -2.5810 hn         1 0EV       0.335500
     30 H11         -7.8250     0.2400    -2.8740 ha         1 0EV       0.167000
     31 H12         -3.2950    -2.5960    -3.1440 hn         1 0EV       0.307700
     32 H14         -6.2760    -4.8660    -3.4030 hn         1 0EV       0.472800
     33 H15         -3.5920    -4.9710    -2.4670 h1         1 0EV       0.042700
     34 H16         -3.5540    -4.8210    -4.2290 h1         1 0EV       0.042700
     35 C14          1.5310     0.0000     0.0000 c3         1 0EV      -0.069700
     36 C15          2.0410     0.0000     1.4430 c3         1 0EV      -0.072900
     37 C16          3.5710    -0.0000     1.4420 c3         1 0EV      -0.079900
     38 C17          4.0800    -1.2500     0.7210 c3         1 0EV      -0.080400
     39 C18          3.5700    -1.2500    -0.7220 c3         1 0EV      -0.079900
     40 C19          2.0400    -1.2490    -0.7210 c3         1 0EV      -0.072900
     41 C20         -4.4550    -6.6360    -3.5140 c3         1 0EV      -0.046100
     42 C21         -3.1670    -7.4160    -3.5520 ca         1 0EV      -0.092300
     43 C22         -2.6010    -7.8740    -2.3770 ca         1 0EV      -0.121000
     44 C23         -1.4180    -8.5890    -2.4120 ca         1 0EV      -0.124000
     45 C24         -0.8010    -8.8450    -3.6210 ca         1 0EV      -0.124000
     46 C25         -1.3670    -8.3870    -4.7970 ca         1 0EV      -0.124000
     47 C26         -2.5520    -7.6770    -4.7630 ca         1 0EV      -0.121000
     48 H4           1.8960     0.8830    -0.5100 hc         1 0EV       0.049700
     49 H13          1.6810     0.8860     1.9520 hc         1 0EV       0.044450
     50 H17          1.6810    -0.8860     1.9520 hc         1 0EV       0.044450
     51 H18          3.9300     0.8830     0.9290 hc         1 0EV       0.039950
     52 H19          3.9310    -0.0030     2.4640 hc         1 0EV       0.039950
     53 H20          3.7160    -2.1330     1.2310 hc         1 0EV       0.039200
     54 H21          5.1630    -1.2480     0.7200 hc         1 0EV       0.039200
     55 H22          3.9300    -0.3640    -1.2310 hc         1 0EV       0.039950
     56 H23          3.9300    -2.1360    -1.2300 hc         1 0EV       0.039950
     57 H24          1.6800    -1.2470    -1.7430 hc         1 0EV       0.044450
     58 H25          1.6800    -2.1330    -0.2080 hc         1 0EV       0.044450
     59 H26         -5.0100    -6.8100    -4.4290 hc         1 0EV       0.058700
     60 H27         -5.0480    -6.9590    -2.6670 hc         1 0EV       0.058700
     61 H28         -3.0840    -7.6730    -1.4290 ha         1 0EV       0.132000
     62 H29         -0.9750    -8.9480    -1.4910 ha         1 0EV       0.133000
     63 H30          0.1270    -9.4040    -3.6490 ha         1 0EV       0.132000
     64 H31         -0.8840    -8.5900    -5.7450 ha         1 0EV       0.133000
     65 H32         -2.9950    -7.3180    -5.6840 ha         1 0EV       0.132000
@<TRIPOS>BOND
     1    19    18 1
     2    18    16 1
     3    16    15 1
     4    16    17 2
     5     2     1 1
     6     2     3 1
     7    15    14 1
     8    17    13 1
     9     3     4 1
    10    14    13 ar
    11    14     5 ar
    12     4     5 1
    13    13    12 ar
    14     5     6 ar
    15    12    11 ar
    16     6    11 ar
    17     6     7 1
    18    11    10 1
    19     7     8 2
    20    10    20 2
    21    10     9 1
    22     8     9 1
    23     1    21 1
    24     1    22 1
    25     2    23 1
    26     3    24 1
    27     3    25 1
    28     4    26 1
    29     4    27 1
    30     8    28 1
    31     9    29 1
    32    12    30 1
    33    15    31 1
    34    18    32 1
    35    19    33 1
    36    19    34 1
    37     1    35 1
    38    35    36 1
    39    36    37 1
    40    37    38 1
    41    38    39 1
    42    39    40 1
    43    40    35 1
    44    19    41 1
    45    41    42 1
    46    42    43 ar
    47    43    44 ar
    48    44    45 ar
    49    45    46 ar
    50    46    47 ar
    51    47    42 ar
    52    35    48 1
    53    36    49 1
    54    36    50 1
    55    37    51 1
    56    37    52 1
    57    38    53 1
    58    38    54 1
    59    39    55 1
    60    39    56 1
    61    40    57 1
    62    40    58 1
    63    41    59 1
    64    41    60 1
    65    43    61 1
    66    44    62 1
    67    45    63 1
    68    46    64 1
    69    47    65 1
@<TRIPOS>SUBSTRUCTURE
     1 0EV         1 TEMP              0 ****  ****    0 ROOT
