@<TRIPOS>MOLECULE
0EX
   62    70     1     0     0
SMALL
bcc


@<TRIPOS>ATOM
      1 N1           0.0000     0.0000     0.0000 na         1 0EX       0.311000
      2 C3           1.3890     0.0000     0.0000 c2         1 0EX      -0.173000
      3 C2           2.3370     0.0000     1.0020 c2         1 0EX      -0.162000
      4 C4           3.6910     0.0000     0.6680 c3         1 0EX      -0.106000
      5 C5           4.0930    -0.0010    -0.6910 c2         1 0EX      -0.146000
      6 C6           3.1320    -0.0010    -1.6950 c2         1 0EX      -0.045000
      7 C7           3.5490    -0.0020    -3.1430 DU         1 0EX      -0.293000
      8 C8           3.6910    -1.4450    -3.6320 c3         1 0EX      -0.552000
      9 N2           4.0970    -1.4460    -5.0440 n7         1 0EX      -0.036000
     10 C9           4.2420    -2.8180    -5.5490 c3         1 0EX       0.004000
     11 C10          4.6600    -2.7790    -6.9960 ca         1 0EX      -0.108000
     12 C11          6.0010    -2.7620    -7.3280 ca         1 0EX      -0.087000
     13 C12          6.3840    -2.7250    -8.6550 ca         1 0EX      -0.093000
     14 C13          5.4250    -2.7060    -9.6520 ca         1 0EX      -0.096000
     15 C14          4.0840    -2.7240    -9.3190 ca         1 0EX      -0.093000
     16 C15          3.7010    -2.7670    -7.9920 ca         1 0EX      -0.087000
     17 C16          1.7800    -0.0000    -1.3550 c2         1 0EX      -0.121000
     18 N3           0.6410    -0.0010    -2.0960 n2         1 0EX      -0.197000
     19 C17         -0.4020    -0.0060    -1.3040 c2         1 0EX      -0.100000
     20 N4          -1.7130    -0.0080    -1.7260 nu         1 0EX       0.113000
     21 C1          -2.7990    -0.0150    -0.7420 c3         1 0EX      -0.125000
     22 N5           5.4190    -0.0010    -0.9850 n2         1 0EX       0.085000
     23 C18          6.3270    -0.0010    -0.0440 c2         1 0EX      -0.454000
     24 N6           7.6510    -0.0000    -0.4130 nz         1 0EX       0.959000
     25 N7           6.0240     0.0010     1.2870 ns         1 0EX       0.117000
     26 C19          4.7350     0.0010     1.7000 c2         1 0EX       0.264000
     27 O1           4.4530     0.0010     2.8840 o          1 0EX      -0.277000
     28 H1          -0.5660     0.0540     0.8240 hn         1 0EX       0.110000
     29 H2           2.7550    -0.2910     0.0460 DU         1 0EX       0.255000
     30 H3           2.6570    -0.6020    -3.2760 DU         1 0EX       0.394000
     31 H4           2.4760    -0.0290    -3.2890 DU         1 0EX       0.046000
     32 H5           2.8260    -0.7970    -3.5480 DU         1 0EX       0.113000
     33 H6           4.6390    -0.9530    -3.8090 h1         1 0EX       0.381000
     34 H7           4.8170    -0.9710    -4.5360 hn         1 0EX       0.045000
     35 H9           3.2890    -3.3260    -5.4600 h1         1 0EX       0.066000
     36 H10          4.9670    -3.4240    -5.0200 h1         1 0EX       0.066000
     37 H11          6.7170    -2.8350    -6.5170 ha         1 0EX       0.101000
     38 H12          7.4110    -2.8220    -8.9870 ha         1 0EX       0.108500
     39 H13          5.7090    -3.1600   -10.5930 ha         1 0EX       0.112000
     40 H14          3.3280    -2.7000   -10.0950 ha         1 0EX       0.108500
     41 H15          2.6390    -2.6570    -7.8060 ha         1 0EX       0.101000
     42 H17         -1.9160     0.2500    -2.6710 hn         1 0EX       0.123000
     43 H18         -2.6030     1.0400    -0.8850 h1         1 0EX       0.067500
     44 H19         -2.6700    -0.0620     0.3330 h1         1 0EX       0.067500
     45 H21          8.2320     0.3060     0.3420 hn         1 0EX       0.018667
     46 H22          7.8230     0.5950    -1.1990 hn         1 0EX       0.018667
     47 H23          6.7320     0.1410     1.9810 hn         1 0EX       0.100000
     48 C20         -4.1460    -0.0170    -1.4690 c3         1 0EX      -0.042000
     49 C21         -5.2620    -0.0230    -0.4570 ca         1 0EX      -0.119000
     50 C22         -5.7780     1.1700     0.0100 ca         1 0EX      -0.090500
     51 C23         -6.8030     1.1650     0.9380 ca         1 0EX      -0.096000
     52 C24         -7.3120    -0.0360     1.3980 ca         1 0EX      -0.095000
     53 C25         -6.7970    -1.2300     0.9290 ca         1 0EX      -0.096000
     54 C26         -5.7750    -1.2230    -0.0030 ca         1 0EX      -0.090500
     55 H8          -4.2880     0.8910    -2.0430 hc         1 0EX       0.081000
     56 H16         -4.3370    -0.9680    -1.9510 hc         1 0EX       0.081000
     57 H20         -5.3580     2.0930    -0.3720 ha         1 0EX       0.106500
     58 H24         -7.2800     2.0960     1.2180 ha         1 0EX       0.111000
     59 H25         -8.0850    -0.0240     2.1570 ha         1 0EX       0.110000
     60 H26         -7.1930    -2.0970     1.4450 ha         1 0EX       0.111000
     61 H27         -5.4790    -2.2140    -0.3260 ha         1 0EX       0.106500
     62 H63          7.7320    -0.8630    -0.9130 hn         1 0EX       0.018667
@<TRIPOS>BOND
     1     1     2 1   
     2     1    19 1   
     3     1    28 1   
     4     2     3 1   
     5     2    17 1   
     6     3     4 1   
     7     3    29 1   
     8     4     5 1   
     9     4    26 1   
    10     4    29 1   
    11     5     6 1   
    12     5    22 1   
    13     6     7 1   
    14     6    17 1   
    15     7     8 1   
    16     7    30 1   
    17     7    31 1   
    18     7    32 1   
    19     8     9 1   
    20     8    32 1   
    21     8    33 1   
    22     9    10 1   
    23     9    34 1   
    24    10    11 1   
    25    10    35 1   
    26    10    36 1   
    27    11    12 1   
    28    11    16 1   
    29    12    13 1   
    30    12    37 1   
    31    13    14 1   
    32    13    38 1   
    33    14    15 1   
    34    14    39 1   
    35    15    16 1   
    36    15    40 1   
    37    16    41 1   
    38    17    18 1   
    39    18    19 1   
    40    19    20 1   
    41    20    21 1   
    42    20    42 1   
    43    21    43 1   
    44    21    44 1   
    45    21    48 1   
    46    22    23 1   
    47    23    24 1   
    48    23    25 1   
    49    24    45 1   
    50    24    46 1   
    51    24    62 1   
    52    25    26 1   
    53    25    47 1   
    54    26    27 1   
    55    30    31 1   
    56    30    32 1   
    57    48    49 1   
    58    48    55 1   
    59    48    56 1   
    60    49    50 1   
    61    49    54 1   
    62    50    51 1   
    63    50    57 1   
    64    51    52 1   
    65    51    58 1   
    66    52    53 1   
    67    52    59 1   
    68    53    54 1   
    69    53    60 1   
    70    54    61 1   
@<TRIPOS>SUBSTRUCTURE
     1 0EX         1 TEMP              0 ****  ****    0 ROOT
