@<TRIPOS>MOLECULE
molecule
   62    66     1     0     0
SMALL
bcc


@<TRIPOS>ATOM
      1 N1           0.0000     0.0000     0.0000 na         1 0EX      -0.258300
      2 C3           1.3890     0.0000     0.0000 ca         1 0EX      -0.073200
      3 C2           2.3370     0.0000     1.0020 ca         1 0EX      -0.151000
      4 C4           3.6910     0.0000     0.6680 ca         1 0EX      -0.166600
      5 C5           4.0930    -0.0010    -0.6910 ca         1 0EX       0.071400
      6 C6           3.1320    -0.0010    -1.6950 ca         1 0EX      -0.071300
      7 C7           3.5490    -0.0020    -3.1430 c3         1 0EX      -0.268100
      8 C8           3.6910    -1.4450    -3.6320 c3         1 0EX      -0.303200
      9 N2           4.0970    -1.4460    -5.0440 n7         1 0EX      -0.777200
     10 C9           4.2420    -2.8180    -5.5490 c3         1 0EX       0.229100
     11 C10          4.6600    -2.7790    -6.9960 ca         1 0EX      -0.095300
     12 C11          6.0010    -2.7620    -7.3280 ca         1 0EX      -0.115000
     13 C12          6.3840    -2.7250    -8.6550 ca         1 0EX      -0.123500
     14 C13          5.4250    -2.7060    -9.6520 ca         1 0EX      -0.123000
     15 C14          4.0840    -2.7240    -9.3190 ca         1 0EX      -0.123500
     16 C15          3.7010    -2.7670    -7.9920 ca         1 0EX      -0.115000
     17 C16          1.7800    -0.0000    -1.3550 ca         1 0EX       0.054400
     18 N3           0.6410    -0.0010    -2.0960 nc         1 0EX      -0.704100
     19 C17         -0.4020    -0.0060    -1.3040 cd         1 0EX       0.723700
     20 N4          -1.7130    -0.0080    -1.7260 nu         1 0EX      -0.841200
     21 C1          -2.7990    -0.0150    -0.7420 c3         1 0EX       0.184800
     22 N5           5.4190    -0.0010    -0.9850 nc         1 0EX      -0.537100
     23 C18          6.3270    -0.0010    -0.0440 cd         1 0EX       0.451800
     24 N6           7.6510    -0.0000    -0.4130 nz         1 0EX      -0.744600
     25 N7           6.0240     0.0010     1.2870 ns         1 0EX      -0.490400
     26 C19          4.7350     0.0010     1.7000 c          1 0EX       0.733100
     27 O1           4.4530     0.0010     2.8840 o          1 0EX      -0.519500
     28 H1          -0.5660     0.0540     0.8240 hn         1 0EX       0.335700
     29 H2           2.7550    -0.2910     0.0460 ha         1 0EX       0.279000
     30 H3           2.6570    -0.6020    -3.2760 hc         1 0EX       0.206200
     31 H4           2.4760    -0.0290    -3.2890 hc         1 0EX       0.206200
     32 H5           2.8260    -0.7970    -3.5480 h1         1 0EX       0.256700
     33 H6           4.6390    -0.9530    -3.8090 h1         1 0EX       0.256700
     34 H7           4.8170    -0.9710    -4.5360 hn         1 0EX       0.345800
     35 H9           3.2890    -3.3260    -5.4600 h1         1 0EX       0.057700
     36 H10          4.9670    -3.4240    -5.0200 h1         1 0EX       0.057700
     37 H11          6.7170    -2.8350    -6.5170 ha         1 0EX       0.126500
     38 H12          7.4110    -2.8220    -8.9870 ha         1 0EX       0.136500
     39 H13          5.7090    -3.1600   -10.5930 ha         1 0EX       0.140000
     40 H14          3.3280    -2.7000   -10.0950 ha         1 0EX       0.136500
     41 H15          2.6390    -2.6570    -7.8060 ha         1 0EX       0.126500
     42 H17         -1.9160     0.2500    -2.6710 hn         1 0EX       0.489800
     43 H18         -2.6030     1.0400    -0.8850 h1         1 0EX       0.064700
     44 H19         -2.6700    -0.0620     0.3330 h1         1 0EX       0.064700
     45 H21          8.2320     0.3060     0.3420 hn         1 0EX       0.480800
     46 H22          7.8230     0.5950    -1.1990 hn         1 0EX       0.480800
     47 H23          6.7320     0.1410     1.9810 hn         1 0EX       0.340500
     48 C20         -4.1460    -0.0170    -1.4690 c3         1 0EX      -0.027100
     49 C21         -5.2620    -0.0230    -0.4570 ca         1 0EX      -0.114300
     50 C22         -5.7780     1.1700     0.0100 ca         1 0EX      -0.120000
     51 C23         -6.8030     1.1650     0.9380 ca         1 0EX      -0.124500
     52 C24         -7.3120    -0.0360     1.3980 ca         1 0EX      -0.122000
     53 C25         -6.7970    -1.2300     0.9290 ca         1 0EX      -0.124500
     54 C26         -5.7750    -1.2230    -0.0030 ca         1 0EX      -0.120000
     55 H8          -4.2880     0.8910    -2.0430 hc         1 0EX       0.074700
     56 H16         -4.3370    -0.9680    -1.9510 hc         1 0EX       0.074700
     57 H20         -5.3580     2.0930    -0.3720 ha         1 0EX       0.132500
     58 H24         -7.2800     2.0960     1.2180 ha         1 0EX       0.140000
     59 H25         -8.0850    -0.0240     2.1570 ha         1 0EX       0.139000
     60 H26         -7.1930    -2.0970     1.4450 ha         1 0EX       0.140000
     61 H27         -5.4790    -2.2140    -0.3260 ha         1 0EX       0.132500
     62 H63          7.7320    -0.8630    -0.9130 hn         1 0EX       0.480800
@<TRIPOS>BOND
     1    21    20 1   
     2    15    14 ar  
     3    15    16 ar  
     4    14    13 ar  
     5    16    11 ar  
     6    20    19 1   
     7    13    12 ar  
     8    11    12 ar  
     9    11    10 1   
    10    19    18 2   
    11    19     1 1   
    12     9    10 1   
    13     9     8 1   
    14    18    17 1   
    15     1     2 1   
    16     8     7 1   
    17    17     2 ar  
    18    17     6 ar  
    19     7     6 1   
    20     2     3 ar  
    21     6     5 ar  
    22     3     4 ar  
    23     5     4 ar  
    24     5    22 1   
    25     4    26 1   
    26    22    23 2   
    27    26    27 2   
    28    26    25 1   
    29    23    25 1   
    30    23    24 1   
    31     1    28 1   
    32     3    29 1   
    33     7    30 1   
    34     7    31 1   
    35     8    32 1   
    36     8    33 1   
    37     9    34 1   
    38    10    35 1   
    39    10    36 1   
    40    12    37 1   
    41    13    38 1   
    42    14    39 1   
    43    15    40 1   
    44    16    41 1   
    45    20    42 1   
    46    21    43 1   
    47    21    44 1   
    48    24    45 1   
    49    24    46 1   
    50    25    47 1   
    51    21    48 1   
    52    48    49 1   
    53    49    50 ar  
    54    50    51 ar  
    55    51    52 ar  
    56    52    53 ar  
    57    53    54 ar  
    58    54    49 ar  
    59    48    55 1   
    60    48    56 1   
    61    50    57 1   
    62    51    58 1   
    63    52    59 1   
    64    53    60 1   
    65    54    61 1   
    66    62    24 1   
@<TRIPOS>SUBSTRUCTURE
     1 0EX         1 TEMP              0 ****  ****    0 ROOT
