@<TRIPOS>MOLECULE
molecule
   38    40     1     0     0
SMALL
bcc


@<TRIPOS>ATOM
      1 C4           0.0000     0.0000     0.0000 c          1 0EY       0.704700
      2 C5           1.4160     0.0000     0.0000 cc         1 0EY      -0.329200
      3 C6           2.0730     0.0000     1.1790 cd         1 0EY       0.047600
      4 C8           2.3220     1.4220     4.0680 cc         1 0EY       0.227600
      5 C9           1.5520     2.1540     4.9070 cd         1 0EY      -0.239600
      6 N1           1.3650     0.0010     2.3500 n          1 0EY      -0.363000
      7 N3          -0.6610     0.0010     1.1750 ns         1 0EY      -0.559500
      8 C2           0.0190     0.0010     2.3370 c          1 0EY       0.812500
      9 O4          -0.6140     0.0060    -1.0520 o          1 0EY      -0.620500
     10 N5           3.3450     2.2060     3.7080 nc         1 0EY      -0.357000
     11 N6           3.2150     3.3490     4.2840 nd         1 0EY      -0.187800
     12 N7           2.1530     3.3610     5.0120 na         1 0EY       0.102400
     13 C1'          1.6780     4.4900     5.8160 c3         1 0EY       0.244800
     14 O4'          1.4130     5.6330     4.9720 os         1 0EY      -0.361600
     15 C4'          2.7100     6.2070     4.6930 c3         1 0EY       0.120100
     16 C5'          2.5630     7.6670     4.2590 c3         1 0EY       0.150400
     17 O5'          1.8880     7.7240     3.0000 oh         1 0EY      -0.594800
     18 C3'          3.4770     6.1190     6.0300 c3         1 0EY       0.107100
     19 O3'          4.8520     5.8100     5.7980 oh         1 0EY      -0.579800
     20 C2'          2.7820     4.9630     6.7860 c3         1 0EY       0.086100
     21 O2'          2.2080     5.4370     8.0060 oh         1 0EY      -0.589800
     22 H1           1.9640    -0.0010    -0.9340 ha         1 0EY       0.179000
     23 H2           3.1570    -0.0000     1.1980 h4         1 0EY       0.173000
     24 H3           3.0260    -0.5100     3.5150 h1         1 0EY       0.083200
     25 H4           1.4800    -0.5100     4.3750 h1         1 0EY       0.083200
     26 H5           0.6380     1.8380     5.3950 h4         1 0EY       0.198000
     27 H6          -1.6620     0.0010     1.1840 hn         1 0EY       0.362500
     28 H7           0.7860     4.2180     6.3680 h2         1 0EY       0.121700
     29 H8           3.2180     5.6300     3.9300 h1         1 0EY       0.110700
     30 H9           1.9890     8.2080     5.0010 h1         1 0EY       0.032200
     31 H10          3.5440     8.1160     4.1630 h1         1 0EY       0.032200
     32 H11          1.8610     8.6160     2.6980 ho         1 0EY       0.405000
     33 H12          3.3780     7.0440     6.5840 h1         1 0EY       0.064700
     34 H13          5.3940     6.3560     6.3450 ho         1 0EY       0.406000
     35 H14          3.4850     4.1610     6.9770 h1         1 0EY       0.078700
     36 H15          2.5820     4.9660     8.7330 ho         1 0EY       0.413000
     37 C7           2.0770     0.0010     3.6290 c3         1 0EY       0.103700
     38 O2          -0.5910     0.0000     3.3880 o          1 0EY      -0.668500
@<TRIPOS>BOND
     1    38     8 2
     2     7     8 1
     3     7     1 1
     4     8     6 1
     5    10    11 2
     6    10     4 1
     7    11    12 1
     8     9     1 2
     9     1     2 1
    10     6    37 1
    11     6     3 1
    12    37     4 1
    13     4     5 2
    14    17    16 1
    15    19    18 1
    16    15    16 1
    17    15    14 1
    18    15    18 1
    19    12     5 1
    20    12    13 1
    21     2     3 2
    22    14    13 1
    23    18    20 1
    24    13    20 1
    25    20    21 1
    26     2    22 1
    27     3    23 1
    28    37    24 1
    29    37    25 1
    30     5    26 1
    31     7    27 1
    32    13    28 1
    33    15    29 1
    34    16    30 1
    35    16    31 1
    36    17    32 1
    37    18    33 1
    38    19    34 1
    39    20    35 1
    40    21    36 1
@<TRIPOS>SUBSTRUCTURE
     1 0EY         1 TEMP              0 ****  ****    0 ROOT
