@<TRIPOS>MOLECULE
0EY
   38    40     1     0     0
SMALL
bcc


@<TRIPOS>ATOM
      1 C4          -0.8920     1.2150     1.5620 c          1 0EY       0.715700
      2 C5          -1.1870    -0.0900     2.1620 cc         1 0EY      -0.323200
      3 C6          -0.1980    -1.0000     2.3590 cd         1 0EY       0.060600
      4 C8           2.5150    -1.7620     3.7350 cc         1 0EY       0.201600
      5 C9           3.6800    -1.3060     4.3750 cd         1 0EY      -0.167600
      6 N1           1.1130    -0.7630     1.9710 n          1 0EY      -0.373000
      7 N3           0.4550     1.4470     1.2180 ns         1 0EY      -0.585500
      8 C2           1.4700     0.5050     1.4330 c          1 0EY       0.805500
      9 O4          -1.7260     2.1080     1.3430 o          1 0EY      -0.610500
     10 N5           1.6850    -2.3150     4.7460 nc         1 0EY      -0.353000
     11 N6           2.2610    -2.2230     5.8700 nd         1 0EY      -0.151800
     12 N7           3.4640    -1.6090     5.7280 na         1 0EY       0.024400
     13 C1'          4.4540    -1.4250     6.7860 c3         1 0EY       0.262800
     14 O4'          4.9770    -2.6910     7.1990 os         1 0EY      -0.402600
     15 C4'          4.4160    -3.0570     8.4710 c3         1 0EY       0.097100
     16 C5'          5.4650    -3.8870     9.2060 c3         1 0EY       0.127400
     17 O5'          4.9410    -4.1050    10.5080 oh         1 0EY      -0.615800
     18 C3'          4.0860    -1.7360     9.1950 c3         1 0EY       0.094100
     19 O3'          2.8900    -1.8150     9.9380 oh         1 0EY      -0.588800
     20 C2'          3.8820    -0.7140     8.0550 c3         1 0EY       0.116100
     21 O2'          4.6800     0.4380     8.2350 oh         1 0EY      -0.595800
     22 H1          -2.2300    -0.2810     2.4410 ha         1 0EY       0.180000
     23 H2          -0.3840    -1.9860     2.8300 h4         1 0EY       0.180000
     24 H3           3.0830    -1.4330     1.7040 h1         1 0EY       0.088700
     25 H4           1.8100    -2.7320     1.9610 h1         1 0EY       0.088700
     26 H5           4.5770    -0.8130     4.0010 h4         1 0EY       0.203000
     27 H6           0.7230     2.3200     0.8180 hn         1 0EY       0.351500
     28 H7           5.3250    -0.8550     6.3470 h2         1 0EY       0.117700
     29 H8           3.4820    -3.6560     8.2980 h1         1 0EY       0.089700
     30 H9           5.6270    -4.8600     8.6720 h1         1 0EY       0.045200
     31 H10          6.4370    -3.3310     9.2720 h1         1 0EY       0.045200
     32 H11          5.5150    -4.7530    10.9320 ho         1 0EY       0.416000
     33 H12          4.9350    -1.4250     9.8630 h1         1 0EY       0.067700
     34 H13          3.0020    -2.5530    10.5560 ho         1 0EY       0.429000
     35 H14          2.7980    -0.4370     7.9630 h1         1 0EY       0.098700
     36 H15          4.3030     0.9210     8.9820 ho         1 0EY       0.424000
     37 C7           2.1610    -1.7120     2.2940 c3         1 0EY       0.087700
     38 O2           2.6550     0.7670     1.1310 o          1 0EY      -0.651500
@<TRIPOS>BOND
     1     1     2 1   
     2     1     7 1   
     3     1     9 2   
     4     2     3 2   
     5     2    22 1   
     6     3     6 1   
     7     3    23 1   
     8     4     5 2   
     9     4    10 1   
    10     4    37 1   
    11     5    12 1   
    12     5    26 1   
    13     6     8 1   
    14     6    37 1   
    15     7     8 1   
    16     7    27 1   
    17     8    38 2   
    18    10    11 2   
    19    11    12 1   
    20    12    13 1   
    21    13    14 1   
    22    13    20 1   
    23    13    28 1   
    24    14    15 1   
    25    15    16 1   
    26    15    18 1   
    27    15    29 1   
    28    16    17 1   
    29    16    30 1   
    30    16    31 1   
    31    17    32 1   
    32    18    19 1   
    33    18    20 1   
    34    18    33 1   
    35    19    34 1   
    36    20    21 1   
    37    20    35 1   
    38    21    36 1   
    39    24    37 1   
    40    25    37 1   
@<TRIPOS>SUBSTRUCTURE
     1 0EY         1 TEMP              0 ****  ****    0 ROOT
