@<TRIPOS>MOLECULE
0F0
   67    70     1     0     0
SMALL
bcc


@<TRIPOS>ATOM
      1 C01         -0.0130     1.0080     0.5210 ca         1 0F0       0.434200
      2 N02          0.9020     1.9630     0.7690 nb         1 0F0      -0.679000
      3 C03          0.9930     2.4260     2.0320 ca         1 0F0       0.404200
      4 C04          0.1850     1.9650     3.0860 ca         1 0F0      -0.250300
      5 C05         -0.7610     0.9750     2.8180 ca         1 0F0      -0.070000
      6 C06         -0.8690     0.4740     1.5130 cp         1 0F0      -0.270800
      7 C07         -1.8450    -0.5770     1.1890 cp         1 0F0       0.530800
      8 N08         -2.4560    -0.5400    -0.0210 nb         1 0F0      -0.738000
      9 C09         -2.1120    -1.5890     2.1360 ca         1 0F0      -0.405600
     10 C10         -3.0480    -2.5730     1.7680 ca         1 0F0       0.466200
     11 N11         -3.6790    -2.5880     0.5890 nb         1 0F0      -0.737000
     12 C12         -3.3720    -1.5440    -0.2860 ca         1 0F0       0.868900
     13 N13         -4.1110    -1.5030    -1.4880 nu         1 0F0      -0.701300
     14 C14         -3.6540    -0.7690    -2.6080 ca         1 0F0       0.105600
     15 C15         -3.4080    -1.4220    -3.8340 ca         1 0F0      -0.107000
     16 C16         -3.0230    -0.7120    -4.9640 ca         1 0F0      -0.156000
     17 C17         -3.5130     0.6320    -2.5560 ca         1 0F0      -0.107000
     18 C18         -3.1190     1.3440    -3.6790 ca         1 0F0      -0.156000
     19 C19         -2.8580     0.6870    -4.9050 ca         1 0F0       0.050600
     20 N20         -2.4220     1.4580    -5.9970 ns         1 0F0      -0.465100
     21 C21         -2.2860     1.0480    -7.3140 c          1 0F0       0.674700
     22 O22         -2.5450    -0.1000    -7.7130 o          1 0F0      -0.567100
     23 C23         -1.7850     2.0950    -8.2610 ca         1 0F0      -0.117600
     24 C24         -2.4840     2.3140    -9.4510 ca         1 0F0      -0.090000
     25 C25         -2.0110     3.2650   -10.3520 ca         1 0F0      -0.109000
     26 C26         -0.8480     3.9870   -10.0910 ca         1 0F0      -0.127000
     27 C27         -0.1290     3.7560    -8.9010 ca         1 0F0       0.039600
     28 C28         -0.6180     2.8020    -7.9780 ca         1 0F0      -0.150000
     29 N29          1.0580     4.4460    -8.5730 ns         1 0F0      -0.453100
     30 C30          1.8370     5.1970    -9.4250 c          1 0F0       0.666100
     31 O31          1.5440     5.4540   -10.6080 o          1 0F0      -0.595100
     32 C32          3.1340     5.7480    -8.8290 c3         1 0F0      -0.161400
     33 C33          3.8710     6.5300    -9.8990 c3         1 0F0      -0.103400
     34 C34          5.1890     7.0500    -9.3450 c3         1 0F0       0.104800
     35 N35          5.9360     7.9070   -10.3290 nx         1 0F0      -0.679400
     36 C36          6.9600     8.7310    -9.6350 c3         1 0F0       0.081100
     37 C37          6.5620     7.0860   -11.4000 c3         1 0F0       0.081100
     38 H1          -0.0660     0.6510    -0.5240 h4         1 0F0       0.039100
     39 H2           1.7540     3.2090     2.2030 h4         1 0F0       0.022100
     40 H3           0.2970     2.3790     4.0960 ha         1 0F0       0.149000
     41 H4          -1.4170     0.5990     3.6170 ha         1 0F0       0.147000
     42 H5          -1.6060    -1.6190     3.1060 ha         1 0F0       0.158000
     43 H6          -3.3010    -3.4030     2.4540 h4         1 0F0       0.033100
     44 H7          -4.5690    -2.3630    -1.7210 hn         1 0F0       0.441800
     45 H8          -3.5240    -2.5150    -3.9170 ha         1 0F0       0.149000
     46 H9          -2.8470    -1.2610    -5.9040 ha         1 0F0       0.152000
     47 H10         -3.7130     1.1790    -1.6200 ha         1 0F0       0.149000
     48 H11         -3.0170     2.4380    -3.5980 ha         1 0F0       0.152000
     49 H12         -2.2890     2.4280    -5.8090 hn         1 0F0       0.317500
     50 H13         -3.3900     1.7280    -9.6700 ha         1 0F0       0.164000
     51 H14         -2.5580     3.4490   -11.2910 ha         1 0F0       0.151000
     52 H15         -0.4990     4.7280   -10.8290 ha         1 0F0       0.171000
     53 H16         -0.0740     2.5970    -7.0420 ha         1 0F0       0.139000
     54 H17          1.4120     4.2730    -7.6570 hn         1 0F0       0.321500
     55 H18          2.8930     6.4100    -7.9570 hc         1 0F0       0.077200
     56 H19          3.7680     4.8990    -8.4610 hc         1 0F0       0.077200
     57 H20          3.2160     7.3750   -10.2470 hc         1 0F0       0.087200
     58 H21          4.9930     7.6780    -8.4280 hx         1 0F0       0.103200
     59 H22          5.8610     6.1930    -9.0550 hx         1 0F0       0.103200
     60 H24          6.4570     9.4110    -8.8970 hx         1 0F0       0.107367
     61 H25          7.5170     9.3460   -10.3920 hx         1 0F0       0.107367
     62 H26          7.6800     8.0580    -9.0970 hx         1 0F0       0.107367
     63 H27          7.3230     6.3960   -10.9490 hx         1 0F0       0.107367
     64 H28          7.0640     7.7640   -12.1410 hx         1 0F0       0.107367
     65 H29          5.7690     6.4840   -11.9200 hx         1 0F0       0.107367
     66 H30          4.0410     5.8590   -10.7850 hc         1 0F0       0.087200
     67 H351         5.2550     8.5410   -10.7730 hn         1 0F0       0.454800
@<TRIPOS>BOND
     1     1     2 ar  
     2     1     6 ar  
     3     1    38 1   
     4     2     3 ar  
     5     3     4 ar  
     6     3    39 1   
     7     4     5 ar  
     8     4    40 1   
     9     5     6 ar  
    10     5    41 1   
    11     6     7 1   
    12     7     8 ar  
    13     7     9 ar  
    14     8    12 ar  
    15     9    10 ar  
    16     9    42 1   
    17    10    11 ar  
    18    10    43 1   
    19    11    12 ar  
    20    12    13 1   
    21    13    14 1   
    22    13    44 1   
    23    14    15 ar  
    24    14    17 ar  
    25    15    16 ar  
    26    15    45 1   
    27    16    19 ar  
    28    16    46 1   
    29    17    18 ar  
    30    17    47 1   
    31    18    19 ar  
    32    18    48 1   
    33    19    20 1   
    34    20    21 1   
    35    20    49 1   
    36    21    22 2   
    37    21    23 1   
    38    23    24 ar  
    39    23    28 ar  
    40    24    25 ar  
    41    24    50 1   
    42    25    26 ar  
    43    25    51 1   
    44    26    27 ar  
    45    26    52 1   
    46    27    28 ar  
    47    27    29 1   
    48    28    53 1   
    49    29    30 1   
    50    29    54 1   
    51    30    31 2   
    52    30    32 1   
    53    32    33 1   
    54    32    55 1   
    55    32    56 1   
    56    33    34 1   
    57    33    57 1   
    58    33    66 1   
    59    34    35 1   
    60    34    58 1   
    61    34    59 1   
    62    35    36 1   
    63    35    37 1   
    64    35    67 1   
    65    36    60 1   
    66    36    61 1   
    67    36    62 1   
    68    37    63 1   
    69    37    64 1   
    70    37    65 1   
@<TRIPOS>SUBSTRUCTURE
     1 0F0         1 TEMP              0 ****  ****    0 ROOT
