@<TRIPOS>MOLECULE
molecule
   66    69     1     0     0
SMALL
bcc


@<TRIPOS>ATOM
      1 C01          0.0000     0.0000     0.0000 ca         1 0F0       0.442200
      2 N02          1.3170     0.0000     0.0000 nb         1 0F0      -0.693000
      3 C03          2.0130     0.0000     1.1210 ca         1 0F0       0.431200
      4 C04          1.3840    -0.0010     2.3510 ca         1 0F0      -0.265300
      5 C05         -0.0010    -0.0010     2.4040 ca         1 0F0      -0.047000
      6 C06         -0.7090     0.0000     1.1990 cp         1 0F0      -0.282800
      7 C07         -2.1920     0.0000     1.1970 cp         1 0F0       0.565800
      8 N08         -2.8690     0.1050     2.3400 nb         1 0F0      -0.798000
      9 C09         -2.9010    -0.1030    -0.0020 ca         1 0F0      -0.431600
     10 C10         -4.2840    -0.0980     0.0460 ca         1 0F0       0.500200
     11 N11         -4.8900     0.0040     1.2180 nb         1 0F0      -0.789000
     12 C12         -4.1930     0.1060     2.3400 ca         1 0F0       0.944900
     13 N13         -4.8670     0.2170     3.5460 nu         1 0F0      -0.753300
     14 C14         -6.2630     0.3130     3.5600 ca         1 0F0       0.137600
     15 C15         -7.0170    -0.3890     2.6280 ca         1 0F0      -0.128500
     16 C16         -8.3940    -0.2960     2.6440 ca         1 0F0      -0.128500
     17 C17         -6.8950     1.1040     4.5100 ca         1 0F0      -0.128500
     18 C18         -8.2720     1.1970     4.5260 ca         1 0F0      -0.128500
     19 C19         -9.0260     0.5000     3.5900 ca         1 0F0       0.037600
     20 N20        -10.4230     0.5960     3.6040 ns         1 0F0      -0.476100
     21 C21        -11.0150     1.7600     3.9390 c          1 0F0       0.675700
     22 O22        -10.3410     2.7020     4.3060 o          1 0F0      -0.586100
     23 C23        -12.4860     1.8900     3.8580 ca         1 0F0      -0.129600
     24 C24        -13.2640     0.8080     3.4420 ca         1 0F0      -0.127000
     25 C25        -14.6350     0.9320     3.3670 ca         1 0F0      -0.117000
     26 C26        -15.2450     2.1270     3.7040 ca         1 0F0      -0.147000
     27 C27        -14.4800     3.2100     4.1190 ca         1 0F0       0.052600
     28 C28        -13.1010     3.0930     4.2030 ca         1 0F0      -0.067000
     29 N29        -15.1020     4.4160     4.4590 ns         1 0F0      -0.482100
     30 C30        -14.4920     5.5880     4.1900 c          1 0F0       0.654100
     31 O31        -13.4520     5.6010     3.5650 o          1 0F0      -0.576100
     32 C32        -15.1020     6.8820     4.6650 c3         1 0F0      -0.157400
     33 C33        -14.2170     8.0520     4.2310 c3         1 0F0      -0.067400
     34 C34        -14.8360     9.3650     4.7140 c3         1 0F0       0.159800
     35 N35        -13.9860    10.4890     4.2980 n3         1 0F0      -0.727600
     36 C36        -13.9740    10.6250     2.8350 c3         1 0F0       0.150100
     37 C37        -14.4150    11.7390     4.9390 c3         1 0F0       0.150100
     38 H1          -0.5370     0.0000    -0.9410 h4         1 0F0       0.027100
     39 H2           3.0960    -0.0000     1.0760 h4         1 0F0       0.024100
     40 H3           1.9660    -0.0010     3.2640 ha         1 0F0       0.142000
     41 H4          -0.5200    -0.0010     3.3540 ha         1 0F0       0.161000
     42 H5          -2.3800    -0.1860    -0.9480 ha         1 0F0       0.147000
     43 H6          -4.8630    -0.1790    -0.8660 h4         1 0F0       0.031100
     44 H7          -4.3590     0.1870     4.4080 hn         1 0F0       0.465800
     45 H8          -6.5250    -1.0100     1.8900 ha         1 0F0       0.150000
     46 H9          -8.9820    -0.8410     1.9150 ha         1 0F0       0.149500
     47 H10         -6.3070     1.6480     5.2400 ha         1 0F0       0.150000
     48 H11         -8.7650     1.8160     5.2660 ha         1 0F0       0.149500
     49 H12        -10.9820    -0.2110     3.4070 hn         1 0F0       0.323500
     50 H13        -12.7900    -0.1300     3.1770 ha         1 0F0       0.124000
     51 H14        -15.2370     0.0910     3.0440 ha         1 0F0       0.135000
     52 H15        -16.3230     2.2190     3.6410 ha         1 0F0       0.131000
     53 H16        -12.5020     3.9370     4.5270 ha         1 0F0       0.186000
     54 H17        -16.0430     4.4120     4.8000 hn         1 0F0       0.323500
     55 H18        -15.1800     6.8690     5.7460 hc         1 0F0       0.060200
     56 H19        -16.0890     6.9950     4.2330 hc         1 0F0       0.060200
     57 H20        -13.2300     7.9380     4.6630 hc         1 0F0       0.069200
     58 H21        -15.8230     9.4800     4.2830 h1         1 0F0       0.029200
     59 H22        -14.9140     9.3520     5.7950 h1         1 0F0       0.029200
     60 H24        -13.1510    10.0530     2.4260 h1         1 0F0       0.032700
     61 H25        -13.8550    11.6690     2.5710 h1         1 0F0       0.032700
     62 H26        -14.9080    10.2550     2.4300 h1         1 0F0       0.032700
     63 H27        -15.4400    11.9540     4.6620 h1         1 0F0       0.032700
     64 H28        -13.7760    12.5500     4.6130 h1         1 0F0       0.032700
     65 H29        -14.3470    11.6350     6.0150 h1         1 0F0       0.032700
     66 H30        -14.1400     8.0650     3.1510 hc         1 0F0       0.069200
@<TRIPOS>BOND
     1    22    21 2   
     2    24    25 ar  
     3    24    23 ar  
     4    25    26 ar  
     5    21    23 1   
     6    21    20 1   
     7    23    28 ar  
     8    26    27 ar  
     9    16    15 ar  
    10    16    19 ar  
    11    28    27 ar  
    12    27    29 1   
    13    15    14 ar  
    14    20    19 1   
    15    19    18 ar  
    16    29    30 1   
    17    14    13 1   
    18    14    17 ar  
    19    18    17 ar  
    20    13    12 1   
    21    31    30 2   
    22    30    32 1   
    23    12     8 ar  
    24    12    11 ar  
    25     8     7 ar  
    26     1     2 ar  
    27     1     6 ar  
    28     2     3 ar  
    29    11    10 ar  
    30     7     6 1   
    31     7     9 ar  
    32    32    33 1   
    33     6     5 ar  
    34     3     4 ar  
    35    10     9 ar  
    36     5     4 ar  
    37    33    34 1   
    38    34    35 1   
    39    35    37 1   
    40    35    36 1   
    41     1    38 1   
    42     3    39 1   
    43     4    40 1   
    44     5    41 1   
    45     9    42 1   
    46    10    43 1   
    47    13    44 1   
    48    15    45 1   
    49    16    46 1   
    50    17    47 1   
    51    18    48 1   
    52    20    49 1   
    53    24    50 1   
    54    25    51 1   
    55    26    52 1   
    56    28    53 1   
    57    29    54 1   
    58    32    55 1   
    59    32    56 1   
    60    33    57 1   
    61    34    58 1   
    62    34    59 1   
    63    36    60 1   
    64    36    61 1   
    65    36    62 1   
    66    37    63 1   
    67    37    64 1   
    68    37    65 1   
    69    33    66 1   
@<TRIPOS>SUBSTRUCTURE
     1 0F0         1 TEMP              0 ****  ****    0 ROOT
