@<TRIPOS>MOLECULE
0F1
   17    18     1     0     0
SMALL
bcc


@<TRIPOS>ATOM
      1 Cl1          0.0990     0.2910     0.0930 cl         1 0F1      -0.141400
      2 C2           1.8010     0.1380     0.0380 ca         1 0F1       0.000400
      3 C1           2.4910    -0.2050     1.2180 ca         1 0F1      -0.143000
      4 C6           3.8690    -0.3350     1.1980 ca         1 0F1      -0.091000
      5 C3           2.4680     0.3530    -1.1600 ca         1 0F1      -0.083000
      6 C4           3.8610     0.2230    -1.1860 ca         1 0F1      -0.108100
      7 C5           4.5690    -0.1230     0.0020 ca         1 0F1      -0.052800
      8 C8           5.9870    -0.2020    -0.2540 cc         1 0F1      -0.034800
      9 Cl2          7.0850    -0.5930     0.9630 cl         1 0F1      -0.087400
     10 S            4.9260     0.4210    -2.4760 ss         1 0F1       0.050500
     11 C7           6.3040     0.0730    -1.5610 cd         1 0F1      -0.057600
     12 C9           7.6920     0.0860    -2.1960 c          1 0F1       0.932800
     13 O1           8.0990    -0.9920    -2.7000 o          1 0F1      -0.794300
     14 O2           8.3120     1.1800    -2.1880 o          1 0F1      -0.794300
     15 H1           1.9310    -0.3680     2.1490 ha         1 0F1       0.129000
     16 H2           4.4210    -0.6020     2.1110 ha         1 0F1       0.138000
     17 H3           1.9200     0.6200    -2.0750 ha         1 0F1       0.137000
@<TRIPOS>BOND
     1     1     2 1   
     2     2     3 ar  
     3     2     5 ar  
     4     3     4 ar  
     5     3    15 1   
     6     4     7 ar  
     7     4    16 1   
     8     5     6 ar  
     9     5    17 1   
    10     6     7 ar  
    11     6    10 1   
    12     7     8 1   
    13     8     9 1   
    14     8    11 2   
    15    10    11 1   
    16    11    12 1   
    17    12    13 1   
    18    12    14 1   
@<TRIPOS>SUBSTRUCTURE
     1 0F1         1 TEMP              0 ****  ****    0 ROOT
