@<TRIPOS>MOLECULE
0F1
   17    18     1     0     0
SMALL
bcc


@<TRIPOS>ATOM
      1 Cl1          0.0000     0.0000     0.0000 cl         1 0F1      -0.071400
      2 C2           1.7360     0.0000     0.0000 ca         1 0F1      -0.049600
      3 C1           2.4300     0.0000     1.2060 ca         1 0F1      -0.127000
      4 C6           3.7890     0.0000     1.2240 ca         1 0F1      -0.059000
      5 C3           2.4220    -0.0060    -1.1920 ca         1 0F1      -0.047000
      6 C4           3.8210    -0.0060    -1.1980 ca         1 0F1      -0.012100
      7 C5           4.5240     0.0000     0.0140 ca         1 0F1      -0.042800
      8 C8           5.9170    -0.0010    -0.1700 cc         1 0F1      -0.081800
      9 Cl2          7.0270     0.0060     1.1630 cl         1 0F1       0.006600
     10 S            4.9600    -0.0120    -2.5400 ss         1 0F1      -0.172500
     11 C7           6.3300    -0.0070    -1.4450 cd         1 0F1       0.062400
     12 C9           7.7350    -0.0090    -1.8660 c          1 0F1       0.986800
     13 O1           8.0440    -0.0150    -3.1780 o          1 0F1      -0.855800
     14 O2           8.6180    -0.0050    -1.0310 o          1 0F1      -0.855800
     15 H1           1.8560     0.0020     2.1240 ha         1 0F1       0.103000
     16 H2           4.2290     0.0030     2.2140 ha         1 0F1       0.105000
     17 H3           1.8840    -0.0090    -2.1320 ha         1 0F1       0.111000
@<TRIPOS>BOND
     1     1     2 1   
     2     2     3 ar  
     3     2     5 ar  
     4     3     4 ar  
     5     3    15 1   
     6     4     7 ar  
     7     4    16 1   
     8     5     6 ar  
     9     5    17 1   
    10     6     7 ar  
    11     6    10 1   
    12     7     8 1   
    13     8     9 1   
    14     8    11 2   
    15    10    11 1   
    16    11    12 1   
    17    12    13 1   
    18    12    14 1   
@<TRIPOS>SUBSTRUCTURE
     1 0F1         1 TEMP              0 ****  ****    0 ROOT
