@<TRIPOS>MOLECULE
molecule
   17    18     1     0     0
SMALL
bcc


@<TRIPOS>ATOM
      1 Cl1          0.0000     0.0000     0.0000 cl         1 0F1      -0.147400
      2 C2           1.7360     0.0000     0.0000 ca         1 0F1       0.010400
      3 C1           2.4300     0.0000     1.2060 ca         1 0F1      -0.147000
      4 C6           3.7890     0.0000     1.2240 ca         1 0F1      -0.084000
      5 C3           2.4220    -0.0060    -1.1920 ca         1 0F1      -0.083000
      6 C4           3.8210    -0.0060    -1.1980 ca         1 0F1      -0.056100
      7 C5           4.5240     0.0000     0.0140 ca         1 0F1      -0.050800
      8 C8           5.9170    -0.0010    -0.1700 cc         1 0F1      -0.006800
      9 Cl2          7.0270     0.0060     1.1630 cl         1 0F1      -0.086400
     10 S            4.9600    -0.0120    -2.5400 ss         1 0F1      -0.028500
     11 C7           6.3300    -0.0070    -1.4450 cd         1 0F1       0.001400
     12 C9           7.7350    -0.0090    -1.8660 c          1 0F1       0.892800
     13 O1           8.0440    -0.0150    -3.1780 o          1 0F1      -0.806800
     14 O2           8.6180    -0.0050    -1.0310 o          1 0F1      -0.806800
     15 H1           1.8560     0.0020     2.1240 ha         1 0F1       0.128000
     16 H2           4.2290     0.0030     2.2140 ha         1 0F1       0.136000
     17 H3           1.8840    -0.0090    -2.1320 ha         1 0F1       0.135000
@<TRIPOS>BOND
     1    14    12 1   
     2    13    12 1   
     3    12    11 1   
     4     9     8 1   
     5    11     8 2   
     6    11    10 1   
     7     8     7 1   
     8    10     6 1   
     9     7     6 ar  
    10     7     4 ar  
    11     6     5 ar  
    12     4     3 ar  
    13     5     2 ar  
    14     3     2 ar  
    15     2     1 1   
    16     3    15 1   
    17     4    16 1   
    18     5    17 1   
@<TRIPOS>SUBSTRUCTURE
     1 0F1         1 TEMP              0 ****  ****    0 ROOT
