@<TRIPOS>MOLECULE
molecule
   62    66     1     0     0
SMALL
bcc


@<TRIPOS>ATOM
      1 CAN          0.0000     0.0000     0.0000 c3         1 0F2       0.121800
      2 CAO          1.5310     0.0000     0.0000 c3         1 0F2       0.139900
      3 OAP          2.0030     0.0000     1.3500 os         1 0F2      -0.426600
      4 CAQ          1.5500     1.1180     2.1190 c3         1 0F2       0.139900
      5 CAR          0.0190     1.1290     2.1400 c3         1 0F2       0.121800
      6 NAM         -0.4850     1.1610     0.7590 n3         1 0F2      -0.716600
      7 CAL         -1.9520     1.2310     0.7360 c3         1 0F2       0.163800
      8 CAK         -2.4090     2.5710     1.3140 c3         1 0F2       0.139400
      9 OAJ         -1.9680     3.6320     0.4650 os         1 0F2      -0.298900
     10 CAD         -2.2920     4.8940     0.8370 ca         1 0F2       0.199100
     11 CAA         -3.0190     5.1150     1.9940 ca         1 0F2      -0.260000
     12 CAB         -3.3510     6.4040     2.3770 ca         1 0F2      -0.036300
     13 CAS         -4.1440     6.6240     3.6380 c3         1 0F2       0.201100
     14 CBB         -5.0530     5.4190     3.8870 c3         1 0F2      -0.089400
     15 CBD         -5.9260     5.1760     2.6530 c3         1 0F2      -0.093100
     16 CBC         -3.1850     6.7910     4.8200 c3         1 0F2      -0.089400
     17 CBE         -3.9880     6.8910     6.1180 c3         1 0F2      -0.093100
     18 OBF         -4.9410     7.8030     3.5010 oh         1 0F2      -0.596800
     19 CAC         -2.9640     7.4930     1.6120 ca         1 0F2      -0.180000
     20 CAF         -2.2350     7.3060     0.4500 ca         1 0F2      -0.007200
     21 NAG         -1.7240     8.1830    -0.4900 na         1 0F2      -0.173400
     22 CAE         -1.8850     5.9960     0.0510 ca         1 0F2      -0.123800
     23 CAI         -1.1510     6.1060    -1.1420 cc         1 0F2      -0.102200
     24 CAH         -1.0730     7.4620    -1.4620 cc         1 0F2      -0.126900
     25 CAT         -0.3970     8.0230    -2.6300 cc         1 0F2       0.437100
     26 CAW         -0.3000     9.3690    -2.9670 cd         1 0F2      -0.165100
     27 S1          -0.6760    11.0480    -2.5930 sx         1 0F2      -0.047500
     28 CAZ          0.0240    11.7330    -3.8060 ce         1 0F2      -0.453000
     29 CAY          0.5820    10.8190    -4.5750 ce         1 0F2      -0.011000
     30 CAX          0.4350     9.4270    -4.1500 cd         1 0F2       0.161300
     31 NAV          0.7390     8.1490    -4.4650 nd         1 0F2      -0.275000
     32 NAU          0.2610     7.3380    -3.5900 nc         1 0F2      -0.326000
     33 H1          -0.3600     0.0600    -1.0200 h1         1 0F2       0.041200
     34 H2          -0.3600    -0.9100     0.4640 h1         1 0F2       0.041200
     35 H3           1.8910    -0.8860    -0.5080 h1         1 0F2       0.055950
     36 H4           1.8910     0.8860    -0.5080 h1         1 0F2       0.055950
     37 H5           1.9110     2.0350     1.6680 h1         1 0F2       0.055950
     38 H6           1.9250     1.0340     3.1320 h1         1 0F2       0.055950
     39 H7          -0.3270     2.0070     2.6710 h1         1 0F2       0.041200
     40 H8          -0.3410     0.2350     2.6350 h1         1 0F2       0.041200
     41 H10         -2.3610     0.4230     1.3310 h1         1 0F2       0.048700
     42 H11         -2.3020     1.1400    -0.2850 h1         1 0F2       0.048700
     43 H12         -1.9850     2.7010     2.3030 h1         1 0F2       0.037700
     44 H13         -3.4900     2.5870     1.3800 h1         1 0F2       0.037700
     45 H14         -3.3230     4.2760     2.6070 ha         1 0F2       0.138000
     46 H15         -5.6860     5.6150     4.7440 hc         1 0F2       0.049700
     47 H16         -4.4460     4.5420     4.0790 hc         1 0F2       0.049700
     48 H17         -5.7530     4.1750     2.2800 hc         1 0F2       0.039033
     49 H18         -5.6740     5.8970     1.8850 hc         1 0F2       0.039033
     50 H19         -6.9700     5.2860     2.9220 hc         1 0F2       0.039033
     51 H20         -2.5220     5.9360     4.8700 hc         1 0F2       0.049700
     52 H21         -2.6010     7.6940     4.6860 hc         1 0F2       0.049700
     53 H22         -4.1500     5.8980     6.5200 hc         1 0F2       0.039033
     54 H23         -3.4390     7.4870     6.8370 hc         1 0F2       0.039033
     55 H24         -4.9440     7.3590     5.9160 hc         1 0F2       0.039033
     56 H25         -4.4300     8.5580     3.7400 ho         1 0F2       0.400000
     57 H26         -3.2320     8.4940     1.9260 ha         1 0F2       0.122000
     58 H27         -1.8210     9.1790    -0.4700 hn         1 0F2       0.282700
     59 H28         -0.7340     5.2880    -1.7150 ha         1 0F2       0.182000
     60 H29         -0.4060    12.6230    -4.2490 h4         1 0F2       0.173000
     61 H30          1.3760    11.0960    -5.2570 ha         1 0F2       0.178000
     62 H9          -1.3540    11.5740    -1.5800 hs         1 0F2       0.396000
@<TRIPOS>BOND
     1    28    29 1   
     2    28    27 2   
     3    29    30 2   
     4     3     4 1   
     5     3     2 1   
     6     4     5 1   
     7    27    26 1   
     8     2     1 1   
     9    30    26 1   
    10    30    31 1   
    11    26    25 2   
    12     5     6 1   
    13    31    32 2   
    14     1     6 1   
    15     6     7 1   
    16    25    32 1   
    17    25    24 1   
    18    23    24 2   
    19    23    22 1   
    20    24    21 1   
    21     7     8 1   
    22     9     8 1   
    23     9    10 1   
    24    22    10 ar  
    25    22    20 ar  
    26    21    20 1   
    27    10    11 ar  
    28    20    19 ar  
    29    11    12 ar  
    30    19    12 ar  
    31    12    13 1   
    32    13    18 1   
    33    13    14 1   
    34    13    16 1   
    35    14    15 1   
    36    16    17 1   
    37     1    33 1   
    38     1    34 1   
    39     2    35 1   
    40     2    36 1   
    41     4    37 1   
    42     4    38 1   
    43     5    39 1   
    44     5    40 1   
    45     7    41 1   
    46     7    42 1   
    47     8    43 1   
    48     8    44 1   
    49    11    45 1   
    50    14    46 1   
    51    14    47 1   
    52    15    48 1   
    53    15    49 1   
    54    15    50 1   
    55    16    51 1   
    56    16    52 1   
    57    17    53 1   
    58    17    54 1   
    59    17    55 1   
    60    18    56 1   
    61    19    57 1   
    62    21    58 1   
    63    23    59 1   
    64    28    60 1   
    65    29    61 1   
    66    27    62 1   
@<TRIPOS>SUBSTRUCTURE
     1 0F2         1 TEMP              0 ****  ****    0 ROOT
