@<TRIPOS>MOLECULE
0F2
   62    66     1     0     0
SMALL
bcc


@<TRIPOS>ATOM
      1 CAN          0.0000     0.0000     0.0000 c3         1 0F2       0.106800
      2 CAO          1.5310     0.0000     0.0000 c3         1 0F2       0.214400
      3 OAP          2.0030     0.0000     1.3500 os         1 0F2      -0.414600
      4 CAQ          1.5500     1.1180     2.1190 c3         1 0F2       0.214400
      5 CAR          0.0190     1.1290     2.1400 c3         1 0F2       0.106800
      6 NAM         -0.4850     1.1610     0.7590 n3         1 0F2      -0.524600
      7 CAL         -1.9520     1.2310     0.7360 c3         1 0F2       0.149800
      8 CAK         -2.4090     2.5710     1.3140 c3         1 0F2       0.192400
      9 OAJ         -1.9680     3.6320     0.4650 os         1 0F2      -0.276900
     10 CAD         -2.2920     4.8940     0.8370 ca         1 0F2       0.213100
     11 CAA         -3.0190     5.1150     1.9940 ca         1 0F2      -0.261000
     12 CAB         -3.3510     6.4040     2.3770 ca         1 0F2      -0.054300
     13 CAS         -4.1440     6.6240     3.6380 c3         1 0F2       0.227100
     14 CBB         -5.0530     5.4190     3.8870 c3         1 0F2      -0.048900
     15 CBD         -5.9260     5.1760     2.6530 c3         1 0F2      -0.005100
     16 CBC         -3.1850     6.7910     4.8200 c3         1 0F2      -0.048900
     17 CBE         -3.9880     6.8910     6.1180 c3         1 0F2      -0.005100
     18 OBF         -4.9410     7.8030     3.5010 oh         1 0F2      -0.585800
     19 CAC         -2.9640     7.4930     1.6120 ca         1 0F2      -0.142000
     20 CAF         -2.2350     7.3060     0.4500 ca         1 0F2      -0.212200
     21 NAG         -1.7240     8.1830    -0.4900 na         1 0F2       0.361600
     22 CAE         -1.8850     5.9960     0.0510 ca         1 0F2      -0.117800
     23 CAI         -1.1510     6.1060    -1.1420 cc         1 0F2      -0.093200
     24 CAH         -1.0730     7.4620    -1.4620 cd         1 0F2      -0.301900
     25 CAT         -0.3970     8.0230    -2.6300 cd         1 0F2       0.403100
     26 CAW         -0.3000     9.3690    -2.9670 cd         1 0F2      -0.571600
     27 S1          -0.6760    11.0480    -2.5930 sx         1 0F2      -0.081700
     28 CAZ          0.0240    11.7330    -3.8060 ce         1 0F2      -0.034300
     29 CAY          0.5820    10.8190    -4.5750 cf         1 0F2      -0.043800
     30 CAX          0.4350     9.4270    -4.1500 cd         1 0F2       0.236100
     31 NAV          0.7390     8.1490    -4.4650 nc         1 0F2      -0.284000
     32 NAU          0.2610     7.3380    -3.5900 nc         1 0F2      -0.313000
     33 H1          -0.3600     0.0600    -1.0200 h1         1 0F2       0.016700
     34 H2          -0.3600    -0.9100     0.4640 h1         1 0F2       0.016700
     35 H3           1.8910    -0.8860    -0.5080 h1         1 0F2       0.014450
     36 H4           1.8910     0.8860    -0.5080 h1         1 0F2       0.014450
     37 H5           1.9110     2.0350     1.6680 h1         1 0F2       0.014450
     38 H6           1.9250     1.0340     3.1320 h1         1 0F2       0.014450
     39 H7          -0.3270     2.0070     2.6710 h1         1 0F2       0.016700
     40 H8          -0.3410     0.2350     2.6350 h1         1 0F2       0.016700
     41 H10         -2.3610     0.4230     1.3310 h1         1 0F2       0.018700
     42 H11         -2.3020     1.1400    -0.2850 h1         1 0F2       0.018700
     43 H12         -1.9850     2.7010     2.3030 h1         1 0F2       0.005700
     44 H13         -3.4900     2.5870     1.3800 h1         1 0F2       0.005700
     45 H14         -3.3230     4.2760     2.6070 ha         1 0F2       0.133000
     46 H15         -5.6860     5.6150     4.7440 hc         1 0F2       0.023200
     47 H16         -4.4460     4.5420     4.0790 hc         1 0F2       0.023200
     48 H17         -5.7530     4.1750     2.2800 hc         1 0F2       0.008033
     49 H18         -5.6740     5.8970     1.8850 hc         1 0F2       0.008033
     50 H19         -6.9700     5.2860     2.9220 hc         1 0F2       0.008033
     51 H20         -2.5220     5.9360     4.8700 hc         1 0F2       0.023200
     52 H21         -2.6010     7.6940     4.6860 hc         1 0F2       0.023200
     53 H22         -4.1500     5.8980     6.5200 hc         1 0F2       0.008033
     54 H23         -3.4390     7.4870     6.8370 hc         1 0F2       0.008033
     55 H24         -4.9440     7.3590     5.9160 hc         1 0F2       0.008033
     56 H25         -4.4300     8.5580     3.7400 ho         1 0F2       0.390000
     57 H26         -3.2320     8.4940     1.9260 ha         1 0F2       0.097000
     58 H27         -1.8210     9.1790    -0.4700 hn         1 0F2       0.084700
     59 H28         -0.7340     5.2880    -1.7150 ha         1 0F2       0.152000
     60 H29         -0.4060    12.6230    -4.2490 h4         1 0F2       0.166000
     61 H30          1.3760    11.0960    -5.2570 ha         1 0F2       0.135000
     62 H9          -1.3540    11.5740    -1.5800 hs         1 0F2       0.519000
@<TRIPOS>BOND
     1     1     2 1   
     2     1     6 1   
     3     1    33 1   
     4     1    34 1   
     5     2     3 1   
     6     2    35 1   
     7     2    36 1   
     8     3     4 1   
     9     4     5 1   
    10     4    37 1   
    11     4    38 1   
    12     5     6 1   
    13     5    39 1   
    14     5    40 1   
    15     6     7 1   
    16     7     8 1   
    17     7    41 1   
    18     7    42 1   
    19     8     9 1   
    20     8    43 1   
    21     8    44 1   
    22     9    10 1   
    23    10    11 ar  
    24    10    22 ar  
    25    11    12 ar  
    26    11    45 1   
    27    12    13 1   
    28    12    19 ar  
    29    13    14 1   
    30    13    16 1   
    31    13    18 1   
    32    14    15 1   
    33    14    46 1   
    34    14    47 1   
    35    15    48 1   
    36    15    49 1   
    37    15    50 1   
    38    16    17 1   
    39    16    51 1   
    40    16    52 1   
    41    17    53 1   
    42    17    54 1   
    43    17    55 1   
    44    18    56 1   
    45    19    20 ar  
    46    19    57 1   
    47    20    21 1   
    48    20    22 ar  
    49    21    24 1   
    50    21    58 1   
    51    22    23 1   
    52    23    24 2   
    53    23    59 1   
    54    24    25 1   
    55    25    26 1   
    56    25    32 2   
    57    26    27 2   
    58    26    30 1   
    59    27    28 1   
    60    27    62 1   
    61    28    29 2   
    62    28    60 1   
    63    29    30 1   
    64    29    61 1   
    65    30    31 2   
    66    31    32 1   
@<TRIPOS>SUBSTRUCTURE
     1 0F2         1 TEMP              0 ****  ****    0 ROOT
