@<TRIPOS>MOLECULE
0F2
   62    66     1     0     0
SMALL
bcc


@<TRIPOS>ATOM
      1 CAN         -0.2450    -0.3130     0.1250 c3         1 0F2       0.130800
      2 CAO          1.0430    -0.0070    -0.6490 c3         1 0F2       0.126900
      3 OAP          1.9090     0.8520     0.0820 os         1 0F2      -0.418600
      4 CAQ          1.2670     2.0660     0.4590 c3         1 0F2       0.126900
      5 CAR         -0.0130     1.8060     1.2590 c3         1 0F2       0.130800
      6 NAM         -0.9240     0.8990     0.5710 n3         1 0F2      -0.727600
      7 CAL         -2.1150     0.5950     1.3480 c3         1 0F2       0.168800
      8 CAK         -3.0440     1.7980     1.5500 c3         1 0F2       0.124400
      9 OAJ         -2.5330     2.5080     2.6860 os         1 0F2      -0.332900
     10 CAD         -3.2700     3.6010     3.0940 ca         1 0F2       0.174100
     11 CAA         -4.4290     4.0560     2.4710 ca         1 0F2      -0.217000
     12 CAB         -5.1170     5.1870     2.9580 ca         1 0F2      -0.014300
     13 CAS         -6.3720     5.6680     2.2590 c3         1 0F2       0.200100
     14 CBB         -6.1540     7.1180     1.7870 c3         1 0F2      -0.103400
     15 CBD         -7.1650     7.5870     0.7740 c3         1 0F2      -0.096100
     16 CBC         -7.5790     5.5940     3.2090 c3         1 0F2      -0.103400
     17 CBE         -7.9290     4.1800     3.5910 c3         1 0F2      -0.096100
     18 OBF         -6.5880     4.8220     1.1270 oh         1 0F2      -0.595800
     19 CAC         -4.6640     5.8870     4.0700 ca         1 0F2      -0.184000
     20 CAF         -3.4950     5.4320     4.7050 ca         1 0F2      -0.011200
     21 NAG         -2.8250     5.9270     5.8190 na         1 0F2      -0.173400
     22 CAE         -2.7750     4.2750     4.2260 ca         1 0F2      -0.124800
     23 CAI         -1.6450     4.0950     5.0980 cc         1 0F2      -0.134200
     24 CAH         -1.7000     5.1140     6.0570 cd         1 0F2      -0.114900
     25 CAT         -0.7800     5.3480     7.1420 cd         1 0F2       0.438100
     26 CAW          0.3910     4.5560     7.4350 cd         1 0F2      -0.236400
     27 S1           1.3100     3.2590     6.9870 ss         1 0F2       0.084200
     28 CAZ          2.4200     3.4810     8.2360 cd         1 0F2      -0.140100
     29 CAY          2.1460     4.5550     9.0560 cc         1 0F2      -0.142000
     30 CAX          0.9590     5.1990     8.6020 cc         1 0F2      -0.080300
     31 NAV          0.1340     6.2710     8.9120 na         1 0F2       0.004400
     32 NAU         -0.8870     6.3640     8.0580 nc         1 0F2      -0.508800
     33 H1          -0.9450    -0.8720    -0.5560 h1         1 0F2       0.044950
     34 H2           0.0120    -0.9890     0.9920 h1         1 0F2       0.044950
     35 H3           0.8050     0.4570    -1.6430 h1         1 0F2       0.052700
     36 H4           1.6370    -0.9470    -0.7940 h1         1 0F2       0.052700
     37 H5           2.0220     2.5930     1.1000 h1         1 0F2       0.052700
     38 H6           1.0470     2.6740    -0.4580 h1         1 0F2       0.052700
     39 H7          -0.5540     2.7810     1.4140 h1         1 0F2       0.044950
     40 H8           0.2740     1.4070     2.2760 h1         1 0F2       0.044950
     41 H10         -2.7050    -0.1810     0.7810 h1         1 0F2       0.046200
     42 H11         -1.8610     0.1710     2.3640 h1         1 0F2       0.046200
     43 H12         -4.0790     1.4300     1.7770 h1         1 0F2       0.053700
     44 H13         -3.0650     2.4770     0.6590 h1         1 0F2       0.053700
     45 H14         -4.8280     3.5440     1.5820 ha         1 0F2       0.160000
     46 H15         -6.1790     7.7870     2.6860 hc         1 0F2       0.048950
     47 H16         -5.1280     7.1900     1.3380 hc         1 0F2       0.048950
     48 H17         -6.9860     8.6630     0.5320 hc         1 0F2       0.038033
     49 H18         -8.2070     7.4850     1.1600 hc         1 0F2       0.038033
     50 H19         -7.0780     6.9990    -0.1720 hc         1 0F2       0.038033
     51 H20         -8.4600     6.0750     2.7070 hc         1 0F2       0.048950
     52 H21         -7.3480     6.1920     4.1280 hc         1 0F2       0.048950
     53 H22         -7.0790     3.7000     4.1330 hc         1 0F2       0.038033
     54 H23         -8.8280     4.1700     4.2530 hc         1 0F2       0.038033
     55 H24         -8.1480     3.5720     2.6790 hc         1 0F2       0.038033
     56 H25         -7.4620     5.0450     0.7830 ho         1 0F2       0.403000
     57 H26         -5.1960     6.7700     4.4470 ha         1 0F2       0.134000
     58 H27         -3.0850     6.7130     6.3540 hn         1 0F2       0.310700
     59 H28         -0.8970     3.3110     5.0180 ha         1 0F2       0.161000
     60 H29          3.2730     2.8130     8.3560 h4         1 0F2       0.172000
     61 H30          2.7340     4.8730     9.9170 ha         1 0F2       0.160000
     62 H31          0.2350     6.9230     9.6530 hn         1 0F2       0.329700
@<TRIPOS>BOND
     1     1     2 1   
     2     1     6 1   
     3     1    33 1   
     4     1    34 1   
     5     2     3 1   
     6     2    35 1   
     7     2    36 1   
     8     3     4 1   
     9     4     5 1   
    10     4    37 1   
    11     4    38 1   
    12     5     6 1   
    13     5    39 1   
    14     5    40 1   
    15     6     7 1   
    16     7     8 1   
    17     7    41 1   
    18     7    42 1   
    19     8     9 1   
    20     8    43 1   
    21     8    44 1   
    22     9    10 1   
    23    10    11 ar  
    24    10    22 ar  
    25    11    12 ar  
    26    11    45 1   
    27    12    13 1   
    28    12    19 ar  
    29    13    14 1   
    30    13    16 1   
    31    13    18 1   
    32    14    15 1   
    33    14    46 1   
    34    14    47 1   
    35    15    48 1   
    36    15    49 1   
    37    15    50 1   
    38    16    17 1   
    39    16    51 1   
    40    16    52 1   
    41    17    53 1   
    42    17    54 1   
    43    17    55 1   
    44    18    56 1   
    45    19    20 ar  
    46    19    57 1   
    47    20    21 1   
    48    20    22 ar  
    49    21    24 1   
    50    21    58 1   
    51    22    23 1   
    52    23    24 2   
    53    23    59 1   
    54    24    25 1   
    55    25    26 1   
    56    25    32 2   
    57    26    27 1   
    58    26    30 2   
    59    27    28 1   
    60    28    29 2   
    61    28    60 1   
    62    29    30 1   
    63    29    61 1   
    64    30    31 1   
    65    31    32 1   
    66    31    62 1   
@<TRIPOS>SUBSTRUCTURE
     1 0F2         1 TEMP              0 ****  ****    0 ROOT
