@<TRIPOS>MOLECULE
0F3
   26    26     1     0     0
SMALL
bcc


@<TRIPOS>ATOM
      1 S1           0.0000     0.0000     0.0000 sy         1 0F3       0.950200
      2 O1           1.4210     0.0000     0.0000 o          1 0F3      -0.470800
      3 O2          -0.7770     0.0000     1.1900 o          1 0F3      -0.470800
      4 N1          -0.4670     1.3340    -0.8640 nz         1 0F3      -0.130500
      5 C1          -0.0250    -3.0850    -2.5730 ca         1 0F3      -0.104500
      6 C2           0.3610    -1.9730    -1.8500 ca         1 0F3       0.041500
      7 C3          -0.4970    -1.4180    -0.9190 ca         1 0F3      -0.218500
      8 C4          -1.7460    -1.9730    -0.7090 ca         1 0F3       0.041500
      9 C5          -2.1390    -3.0850    -1.4280 ca         1 0F3      -0.104500
     10 C6          -1.2810    -3.6420    -2.3670 ca         1 0F3       0.055600
     11 N2          -1.6750    -4.7670    -3.0960 nu         1 0F3      -0.412500
     12 S2          -2.7710    -4.6120    -4.3290 s6         1 0F3       1.017800
     13 O3          -2.9410    -5.9110    -4.8790 o          1 0F3      -0.471300
     14 O4          -3.8470    -3.8390    -3.8150 o          1 0F3      -0.471300
     15 N3          -2.0560    -3.6930    -5.5070 nz         1 0F3      -0.149500
     16 H1          -0.0220     1.3230    -1.7600 hn         1 0F3       0.316800
     17 H2          -0.2010     2.1620    -0.3680 hn         1 0F3       0.316800
     18 H5          -2.4140    -1.5390     0.0240 ha         1 0F3       0.144000
     19 H6          -3.1180    -3.5180    -1.2630 ha         1 0F3       0.144500
     20 H7          -1.3240    -5.6710    -2.8500 hn         1 0F3       0.410800
     21 H8          -2.0350    -2.7360    -5.2160 hn         1 0F3       0.320133
     22 H9          -1.1220    -4.0160    -5.6610 hn         1 0F3       0.320133
     23 H3           0.6470    -3.5180    -3.3040 ha         1 0F3       0.144500
     24 H13         -1.4590     1.3130    -0.9980 hn         1 0F3       0.316800
     25 H33         -2.5710    -3.7860    -6.3600 hn         1 0F3       0.320133
     26 H4           1.3400    -1.5380    -2.0100 ha         1 0F3       0.144000
@<TRIPOS>BOND
     1     1     2 2   
     2     1     3 2   
     3     1     4 1   
     4     1     7 1   
     5     4    16 1   
     6     4    17 1   
     7     4    24 1   
     8     5     6 ar  
     9     5    10 ar  
    10     5    23 1   
    11     6     7 ar  
    12     6    26 1   
    13     7     8 ar  
    14     8     9 ar  
    15     8    18 1   
    16     9    10 ar  
    17     9    19 1   
    18    10    11 1   
    19    11    12 1   
    20    11    20 1   
    21    12    13 2   
    22    12    14 2   
    23    12    15 1   
    24    15    21 1   
    25    15    22 1   
    26    15    25 1   
@<TRIPOS>SUBSTRUCTURE
     1 0F3         1 TEMP              0 ****  ****    0 ROOT
