@<TRIPOS>MOLECULE
molecule
   26    26     1     0     0
SMALL
bcc


@<TRIPOS>ATOM
      1 S1           0.0000     0.0000     0.0000 sy         1 0F3       1.238200
      2 O1           1.4210     0.0000     0.0000 o          1 0F3      -0.485300
      3 O2          -0.7770     0.0000     1.1900 o          1 0F3      -0.485300
      4 N1          -0.4670     1.3340    -0.8640 nz         1 0F3      -0.810500
      5 C1          -0.0250    -3.0850    -2.5730 ca         1 0F3      -0.127500
      6 C2           0.3610    -1.9730    -1.8500 ca         1 0F3      -0.007000
      7 C3          -0.4970    -1.4180    -0.9190 ca         1 0F3      -0.333500
      8 C4          -1.7460    -1.9730    -0.7090 ca         1 0F3      -0.007000
      9 C5          -2.1390    -3.0850    -1.4280 ca         1 0F3      -0.127500
     10 C6          -1.2810    -3.6420    -2.3670 ca         1 0F3       0.143600
     11 N2          -1.6750    -4.7670    -3.0960 nu         1 0F3      -0.771500
     12 S2          -2.7710    -4.6120    -4.3290 s6         1 0F3       1.365800
     13 O3          -2.9410    -5.9110    -4.8790 o          1 0F3      -0.497800
     14 O4          -3.8470    -3.8390    -3.8150 o          1 0F3      -0.497800
     15 N3          -2.0560    -3.6930    -5.5070 nz         1 0F3      -0.820500
     16 H1          -0.0220     1.3230    -1.7600 hn         1 0F3       0.496800
     17 H2          -0.2010     2.1620    -0.3680 hn         1 0F3       0.496800
     18 H5          -2.4140    -1.5390     0.0240 ha         1 0F3       0.181000
     19 H6          -3.1180    -3.5180    -1.2630 ha         1 0F3       0.178500
     20 H7          -1.3240    -5.6710    -2.8500 hn         1 0F3       0.521800
     21 H8          -2.0350    -2.7360    -5.2160 hn         1 0F3       0.497467
     22 H9          -1.1220    -4.0160    -5.6610 hn         1 0F3       0.497467
     23 H3           0.6470    -3.5180    -3.3040 ha         1 0F3       0.178500
     24 H13         -1.4590     1.3130    -0.9980 hn         1 0F3       0.496800
     25 H33         -2.5710    -3.7860    -6.3600 hn         1 0F3       0.497467
     26 H4           1.3400    -1.5380    -2.0100 ha         1 0F3       0.181000
@<TRIPOS>BOND
     1    15    12 1
     2    14    12 2
     3    12    11 1
     4    12    13 2
     5    11    10 1
     6    10     9 ar
     7    10     5 ar
     8     9     8 ar
     9     5     6 ar
    10     8     7 ar
    11     6     7 ar
    12     7     1 1
    13     4     1 1
    14     2     1 2
    15     1     3 2
    16     4    16 1
    17     4    17 1
    18     5    23 1
    19     6    26 1
    20     8    18 1
    21     9    19 1
    22    11    20 1
    23    15    21 1
    24    15    22 1
    25    24     4 1
    26    25    15 1
@<TRIPOS>SUBSTRUCTURE
     1 0F3         1 TEMP              0 ****  ****    0 ROOT
