@<TRIPOS>MOLECULE
0F3
   26    26     1     0     0
SMALL
bcc


@<TRIPOS>ATOM
      1 S1          -0.1620    -0.2720     0.5010 sy         1 0F3       1.476200
      2 O1           1.1510    -0.3970     0.8880 o          1 0F3      -0.541300
      3 O2          -1.1860     0.1100     1.3370 o          1 0F3      -0.541300
      4 N1          -0.0390     1.2690    -0.6010 nz         1 0F3      -0.797500
      5 C1          -2.3710    -2.7380    -1.6260 ca         1 0F3      -0.184500
      6 C2          -1.9730    -1.6840    -0.8140 ca         1 0F3       0.049500
      7 C3          -0.6150    -1.3660    -0.6130 ca         1 0F3      -0.525500
      8 C4           0.3400    -2.1450    -1.2990 ca         1 0F3       0.049500
      9 C5          -0.0320    -3.2000    -2.1160 ca         1 0F3      -0.184500
     10 C6          -1.4000    -3.5350    -2.2750 ca         1 0F3       0.244600
     11 N2          -1.7380    -4.6680    -3.0480 nu         1 0F3      -0.796500
     12 S2          -3.1360    -5.4230    -3.2260 s6         1 0F3       1.521800
     13 O3          -4.1940    -4.8300    -2.5700 o          1 0F3      -0.521300
     14 O4          -2.9650    -6.7820    -3.3770 o          1 0F3      -0.521300
     15 N3          -3.5740    -4.9710    -5.0310 nz         1 0F3      -0.805500
     16 H1           0.9080     1.6560    -0.5640 hn         1 0F3       0.466133
     17 H2          -0.2600     1.0970    -1.5770 hn         1 0F3       0.466133
     18 H5           1.4210    -1.9350    -1.1580 ha         1 0F3       0.191500
     19 H6           0.7600    -3.7880    -2.6160 ha         1 0F3       0.190500
     20 H7          -0.9050    -5.1140    -3.4050 hn         1 0F3       0.500800
     21 H8          -2.9250    -4.3470    -5.5040 hn         1 0F3       0.471800
     22 H9          -4.4960    -4.5290    -5.0640 hn         1 0F3       0.471800
     23 H3          -3.4550    -2.9400    -1.7100 ha         1 0F3       0.190500
     24 H13         -0.6730     1.9970    -0.2650 hn         1 0F3       0.466133
     25 H33         -3.6330    -5.8250    -5.5940 hn         1 0F3       0.471800
     26 H4          -2.7550    -1.1020    -0.2830 ha         1 0F3       0.191500
@<TRIPOS>BOND
     1     1     2 2   
     2     1     3 2   
     3     1     4 1   
     4     1     7 1   
     5     4    16 1   
     6     4    17 1   
     7     4    24 1   
     8     5     6 ar  
     9     5    10 ar  
    10     5    23 1   
    11     6     7 ar  
    12     6    26 1   
    13     7     8 ar  
    14     8     9 ar  
    15     8    18 1   
    16     9    10 ar  
    17     9    19 1   
    18    10    11 1   
    19    11    12 1   
    20    11    20 1   
    21    12    13 2   
    22    12    14 2   
    23    12    15 1   
    24    15    21 1   
    25    15    22 1   
    26    15    25 1   
@<TRIPOS>SUBSTRUCTURE
     1 0F3         1 TEMP              0 ****  ****    0 ROOT
