@<TRIPOS>MOLECULE
molecule
   57    61     1     0     0
SMALL
bcc


@<TRIPOS>ATOM
      1 F1           0.0000     0.0000     0.0000 f          1 0F4      -0.223300
      2 C2           1.3990     0.0000     0.0000 c3         1 0F4       0.675200
      3 F3           1.8660     0.0000     1.3190 f          1 0F4      -0.223300
      4 F4           1.8670    -1.1410    -0.6600 f          1 0F4      -0.223300
      5 C5           1.9010     1.2320    -0.7090 ca         1 0F4      -0.162300
      6 C6           2.1250     1.2000    -2.0730 ca         1 0F4      -0.099000
      7 C7           2.5860     2.3280    -2.7270 ca         1 0F4      -0.115000
      8 C8           2.8230     3.4900    -2.0190 ca         1 0F4      -0.102000
      9 C9           2.5970     3.5260    -0.6500 ca         1 0F4       0.070600
     10 N10          2.8360     4.7020     0.0700 ns         1 0F4      -0.489100
     11 C11          2.6400     5.9010    -0.5140 c          1 0F4       0.783100
     12 O12          2.1710     5.9620    -1.6340 o          1 0F4      -0.632100
     13 N13          2.9620     7.0320     0.1440 ns         1 0F4      -0.488100
     14 C14          2.6620     8.2780    -0.4170 ca         1 0F4       0.095600
     15 C15          2.2840     9.3350     0.4000 ca         1 0F4      -0.193000
     16 C16          1.9860    10.5660    -0.1520 ca         1 0F4      -0.084000
     17 C17          2.0620    10.7490    -1.5190 ca         1 0F4      -0.190000
     18 C18          2.4400     9.6950    -2.3440 ca         1 0F4       0.185600
     19 N19          2.5160     9.8810    -3.7260 nu         1 0F4      -0.681000
     20 C20          1.6660    10.7930    -4.3560 ca         1 0F4       0.204600
     21 C21          2.0960    11.4650    -5.4960 ca         1 0F4      -0.204000
     22 C22          1.2620    12.3650    -6.1230 ca         1 0F4      -0.052000
     23 C23         -0.0120    12.6000    -5.6130 ca         1 0F4      -0.126800
     24 C24         -0.4520    11.9270    -4.4640 ca         1 0F4       0.072600
     25 N25         -1.7460    12.3360    -4.1640 ns         1 0F4      -0.446100
     26 C26         -2.1900    13.2440    -5.0500 c          1 0F4       0.719700
     27 O27         -3.2850    13.7780    -5.0380 o          1 0F4      -0.650500
     28 C28         -1.1250    13.4790    -6.0330 cc         1 0F4      -0.220400
     29 C29         -1.1550    14.3360    -7.1160 cf         1 0F4       0.069800
     30 C30         -2.0970    15.3860    -7.1580 cd         1 0F4      -0.150100
     31 C31         -2.4490    16.1290    -8.2750 cc         1 0F4      -0.145000
     32 C32         -3.4100    17.0560    -7.8640 cc         1 0F4      -0.226000
     33 C33         -3.6260    16.8740    -6.5370 cd         1 0F4      -0.120300
     34 N34         -2.8390    15.8590    -6.0970 na         1 0F4      -0.114100
     35 C36          0.3960    11.0180    -3.8450 ca         1 0F4      -0.203000
     36 C37          2.7450     8.4600    -1.7900 ca         1 0F4      -0.178000
     37 C38          2.1300     2.3930     0.0030 ca         1 0F4      -0.119000
     38 H6           1.9400     0.2900    -2.6300 ha         1 0F4       0.147000
     39 H7           2.7610     2.3000    -3.7960 ha         1 0F4       0.144000
     40 H8           3.1830     4.3740    -2.5320 ha         1 0F4       0.168000
     41 HN10         3.1720     4.6530     1.0110 hn         1 0F4       0.322500
     42 HN13         3.4460     6.9810     1.0190 hn         1 0F4       0.321500
     43 H15          2.2230     9.1940     1.4730 ha         1 0F4       0.130000
     44 H16          1.6910    11.3890     0.4870 ha         1 0F4       0.135000
     45 H17          1.8280    11.7150    -1.9500 ha         1 0F4       0.146000
     46 HN19         3.1970     9.3790    -4.2610 hn         1 0F4       0.452800
     47 H21          3.0870    11.2780    -5.8930 ha         1 0F4       0.135000
     48 H22          1.5970    12.8880    -7.0110 ha         1 0F4       0.134000
     49 HN25        -2.2790    11.9970    -3.3880 hn         1 0F4       0.340500
     50 H29         -0.4850    14.1770    -7.9520 ha         1 0F4       0.151000
     51 H31         -2.0540    16.0120    -9.2770 ha         1 0F4       0.148000
     52 H32         -3.8950    17.7920    -8.4930 ha         1 0F4       0.148000
     53 H33         -4.3190    17.4420    -5.9280 h4         1 0F4       0.167000
     54 H36          0.0530    10.4580    -2.9840 ha         1 0F4       0.150000
     55 H37          3.0400     7.6360    -2.4300 ha         1 0F4       0.168000
     56 H38          1.9530     2.4170     1.0720 ha         1 0F4       0.146000
     57 HN34        -2.7990    15.5160    -5.1580 hn         1 0F4       0.327700
@<TRIPOS>BOND
     1     1     2 1   
     2     5     2 1   
     3     2     4 1   
     4     2     3 1   
     5     6     5 ar  
     6     5    37 ar  
     7     7     6 ar  
     8     6    38 1   
     9     7     8 ar  
    10     7    39 1   
    11     8     9 ar  
    12     8    40 1   
    13     9    37 ar  
    14     9    10 1   
    15    10    11 1   
    16    10    41 1   
    17    11    12 2   
    18    11    13 1   
    19    13    14 1   
    20    13    42 1   
    21    14    15 ar  
    22    14    36 ar  
    23    15    16 ar  
    24    15    43 1   
    25    16    17 ar  
    26    16    44 1   
    27    18    17 ar  
    28    17    45 1   
    29    36    18 ar  
    30    18    19 1   
    31    19    20 1   
    32    19    46 1   
    33    20    21 ar  
    34    20    35 ar  
    35    21    22 ar  
    36    21    47 1   
    37    22    23 ar  
    38    22    48 1   
    39    24    23 ar  
    40    23    28 1   
    41    35    24 ar  
    42    24    25 1   
    43    25    26 1   
    44    25    49 1   
    45    28    26 1   
    46    26    27 2   
    47    28    29 2   
    48    29    30 1   
    49    29    50 1   
    50    30    34 1   
    51    30    31 2   
    52    31    32 1   
    53    31    51 1   
    54    33    32 2   
    55    32    52 1   
    56    34    33 1   
    57    33    53 1   
    58    35    54 1   
    59    36    55 1   
    60    37    56 1   
    61    34    57 1   
@<TRIPOS>SUBSTRUCTURE
     1 0F4         1 TEMP              0 ****  ****    0 ROOT
