@<TRIPOS>MOLECULE
0F4
   57    61     1     0     0
SMALL
bcc


@<TRIPOS>ATOM
      1 F1           0.4320    -0.5890     0.4370 f          1 0F4      -0.235633
      2 C2           1.6960    -0.3700    -0.0570 c3         1 0F4       0.687200
      3 F3           2.5210    -0.6190     1.0120 f          1 0F4      -0.235633
      4 F4           1.9110    -1.4330    -0.9020 f          1 0F4      -0.235633
      5 C5           1.8910     0.9940    -0.7130 ca         1 0F4      -0.144300
      6 C6           0.7960     1.6450    -1.2810 ca         1 0F4      -0.105000
      7 C7           0.9880     2.8810    -1.8950 ca         1 0F4      -0.110000
      8 C8           2.2500     3.4630    -1.9400 ca         1 0F4      -0.154000
      9 C9           3.3650     2.8030    -1.3690 ca         1 0F4       0.063600
     10 N10          4.6400     3.3860    -1.5010 ns         1 0F4      -0.467100
     11 C11          5.6560     3.2480    -0.5240 c          1 0F4       0.771100
     12 O12          5.5440     2.4370     0.4180 o          1 0F4      -0.603100
     13 N13          6.7870     4.0780    -0.6740 ns         1 0F4      -0.462100
     14 C14          7.9830     3.9030     0.0540 ca         1 0F4       0.088600
     15 C15          9.2000     4.2960    -0.5520 ca         1 0F4      -0.206000
     16 C16         10.3860     4.2100     0.1660 ca         1 0F4      -0.082000
     17 C17         10.4100     3.7350     1.4720 ca         1 0F4      -0.179000
     18 C18          9.2100     3.3220     2.0890 ca         1 0F4       0.170600
     19 N19          9.1810     2.9200     3.4360 nu         1 0F4      -0.631000
     20 C20         10.1050     2.0200     3.9910 ca         1 0F4       0.189600
     21 C21         11.0590     1.3230     3.2230 ca         1 0F4      -0.214000
     22 C22         11.9930     0.4720     3.8200 ca         1 0F4      -0.050000
     23 C23         11.9800     0.2930     5.1880 ca         1 0F4      -0.131800
     24 C24         10.9950     0.9860     5.9790 ca         1 0F4       0.085600
     25 N25         11.1660     0.6440     7.3310 ns         1 0F4      -0.475100
     26 C26         12.2450    -0.2560     7.4650 c          1 0F4       0.725700
     27 O27         12.5890    -0.6970     8.5730 o          1 0F4      -0.648500
     28 C28         12.8050    -0.5160     6.0950 cc         1 0F4      -0.159400
     29 C29         13.8250    -1.2960     5.6940 cf         1 0F4       0.045800
     30 C30         14.7230    -2.1390     6.4180 cd         1 0F4      -0.153100
     31 C31         15.7660    -2.9050     5.8250 cc         1 0F4      -0.143000
     32 C32         16.4290    -3.6030     6.8680 cc         1 0F4      -0.215000
     33 C33         15.7840    -3.2530     8.0750 cd         1 0F4      -0.130300
     34 N34         14.7600    -2.3730     7.7970 na         1 0F4      -0.135100
     35 C36         10.0650     1.8370     5.4030 ca         1 0F4      -0.210000
     36 C37          7.9960     3.4150     1.3710 ca         1 0F4      -0.193000
     37 C38          3.1690     1.5510    -0.7480 ca         1 0F4      -0.092000
     38 H6          -0.2040     1.1880    -1.2380 ha         1 0F4       0.154000
     39 H7           0.1320     3.4050    -2.3450 ha         1 0F4       0.143000
     40 H8           2.3700     4.4410    -2.4300 ha         1 0F4       0.135000
     41 HN10         4.6640     4.1920    -2.0870 hn         1 0F4       0.310500
     42 HN13         6.9080     4.5430    -1.5480 hn         1 0F4       0.310500
     43 H15          9.2200     4.6750    -1.5840 ha         1 0F4       0.131000
     44 H16         11.3280     4.5270    -0.3090 ha         1 0F4       0.136000
     45 H17         11.3620     3.6930     2.0230 ha         1 0F4       0.150000
     46 HN19         8.2680     2.8730     3.8390 hn         1 0F4       0.428800
     47 H21         11.0720     1.4300     2.1280 ha         1 0F4       0.147000
     48 H22         12.7260    -0.0540     3.1900 ha         1 0F4       0.136000
     49 HN25        10.6220     0.9930     8.0750 hn         1 0F4       0.342500
     50 H29         14.0360    -1.3100     4.6020 ha         1 0F4       0.140000
     51 H31         15.9990    -2.9390     4.7650 ha         1 0F4       0.151000
     52 H32         17.2720    -4.2790     6.7680 ha         1 0F4       0.155000
     53 H33         15.9960    -3.5790     9.0940 h4         1 0F4       0.170000
     54 H36          9.3210     2.3620     6.0190 ha         1 0F4       0.144000
     55 H37          7.0530     3.0950     1.8480 ha         1 0F4       0.171000
     56 H38          4.0110     1.0140    -0.2760 ha         1 0F4       0.187000
     57 HN34        14.1430    -1.9680     8.4620 hn         1 0F4       0.333700
@<TRIPOS>BOND
     1     1     2 1   
     2     2     3 1   
     3     2     4 1   
     4     2     5 1   
     5     5     6 ar  
     6     5    37 ar  
     7     6     7 ar  
     8     6    38 1   
     9     7     8 ar  
    10     7    39 1   
    11     8     9 ar  
    12     8    40 1   
    13     9    10 1   
    14     9    37 ar  
    15    10    11 1   
    16    10    41 1   
    17    11    12 2   
    18    11    13 1   
    19    13    14 1   
    20    13    42 1   
    21    14    15 ar  
    22    14    36 ar  
    23    15    16 ar  
    24    15    43 1   
    25    16    17 ar  
    26    16    44 1   
    27    17    18 ar  
    28    17    45 1   
    29    18    19 1   
    30    18    36 ar  
    31    19    20 1   
    32    19    46 1   
    33    20    21 ar  
    34    20    35 ar  
    35    21    22 ar  
    36    21    47 1   
    37    22    23 ar  
    38    22    48 1   
    39    23    24 ar  
    40    23    28 1   
    41    24    25 1   
    42    24    35 ar  
    43    25    26 1   
    44    25    49 1   
    45    26    27 2   
    46    26    28 1   
    47    28    29 2   
    48    29    30 1   
    49    29    50 1   
    50    30    31 2   
    51    30    34 1   
    52    31    32 1   
    53    31    51 1   
    54    32    33 2   
    55    32    52 1   
    56    33    34 1   
    57    33    53 1   
    58    34    57 1   
    59    35    54 1   
    60    36    55 1   
    61    37    56 1   
@<TRIPOS>SUBSTRUCTURE
     1 0F4         1 TEMP              0 ****  ****    0 ROOT
