@<TRIPOS>MOLECULE
0F5
   50    53     1     0     0
SMALL
bcc


@<TRIPOS>ATOM
      1 C10          0.2120    -0.7520    -0.2820 ca         1 0F5      -0.067000
      2 C13          2.4610    -1.1300    -1.3330 ce         1 0F5       0.084800
      3 C15          3.9460     0.8810    -1.0960 c          1 0F5       0.707700
      4 C17          6.0230     0.1170    -1.9400 c          1 0F5       0.708100
      5 C21          6.3200     0.7700     3.3280 c3         1 0F5       0.200500
      6 C22          7.6150     1.6000     3.3860 c3         1 0F5      -0.098900
      7 C24          8.5740     0.2360     1.5110 c3         1 0F5       0.120500
      8 C26          6.7110    -0.6640     2.9280 c3         1 0F5      -0.098900
      9 O19          3.2180     1.7470    -0.6150 o          1 0F5      -0.514500
     10 N16          5.3460     1.1080    -1.2360 ns         1 0F5      -0.630500
     11 O20          7.2700     0.1060    -2.0160 o          1 0F5      -0.688500
     12 S18          4.8990    -1.0780    -2.5690 ss         1 0F5      -0.034200
     13 C14          3.5890    -0.4580    -1.6330 cd         1 0F5      -0.180600
     14 C12          1.6080    -0.7990    -0.2030 ca         1 0F5      -0.121800
     15 C11          2.2400    -0.5700     1.0290 ca         1 0F5      -0.060000
     16 C08         -0.5270    -0.4450     0.8610 ca         1 0F5      -0.130000
     17 C09          0.1040    -0.1990     2.0810 ca         1 0F5      -0.074000
     18 C07          1.5010    -0.2710     2.1800 cp         1 0F5      -0.144500
     19 C03          2.2090    -0.0150     3.4460 cp         1 0F5       0.392500
     20 N02          3.5410     0.2530     3.3860 nb         1 0F5      -0.713000
     21 C01          1.5350    -0.0620     4.6970 ca         1 0F5       0.264900
     22 N05          2.1750     0.1690     5.8630 nb         1 0F5      -0.591000
     23 C06          3.4820     0.4480     5.8110 ca         1 0F5       0.262900
     24 C04          4.1970     0.4970     4.5560 ca         1 0F5       0.511900
     25 N28          5.5580     0.8780     4.5560 nu         1 0F5      -0.813900
     26 C23          8.2460     1.6490     2.0080 c3         1 0F5      -0.094900
     27 N27          9.1390     0.2840     0.1140 nz         1 0F5      -0.847600
     28 C25          7.3410    -0.6740     1.5520 c3         1 0F5      -0.094900
     29 H1          -0.2980    -0.9380    -1.2390 ha         1 0F5       0.149000
     30 H2           2.1870    -2.0430    -1.8980 ha         1 0F5       0.160000
     31 H4           5.6830     1.2060     2.4980 h1         1 0F5       0.089700
     32 H7           9.3800    -0.2080     2.1700 hx         1 0F5       0.105700
     33 H8           5.8000    -1.3200     2.9040 hc         1 0F5       0.074450
     34 H9           7.4210    -1.0950     3.6810 hc         1 0F5       0.074450
     35 H10          5.7550     1.9750    -0.9810 hn         1 0F5       0.345500
     36 H11          3.3390    -0.6270     1.0700 ha         1 0F5       0.139000
     37 H12         -1.6250    -0.3900     0.7980 ha         1 0F5       0.154000
     38 H13         -0.5070     0.0620     2.9590 ha         1 0F5       0.149000
     39 H14          0.4610    -0.3000     4.7750 h4         1 0F5       0.045100
     40 H15          3.9870     0.6440     6.7720 h4         1 0F5       0.044100
     41 H16          6.0460     0.5530     5.3660 hn         1 0F5       0.409800
     42 H17          9.1840     2.2630     2.0580 hc         1 0F5       0.066450
     43 H18          7.5380     2.1530     1.2970 hc         1 0F5       0.066450
     44 H19         10.0360     0.7720     0.1130 hn         1 0F5       0.464133
     45 H20          9.2610    -0.6660    -0.2480 hn         1 0F5       0.464133
     46 H22          7.6360    -1.7250     1.2900 hc         1 0F5       0.066450
     47 H23          6.5850    -0.3290     0.7960 hc         1 0F5       0.066450
     48 H5           7.3880     2.6490     3.7140 hc         1 0F5       0.074450
     49 H273         8.4830     0.7750    -0.5160 hn         1 0F5       0.464133
     50 H6           8.3310     1.1590     4.1260 hc         1 0F5       0.074450
@<TRIPOS>BOND
     1     1    14 ar  
     2     1    16 ar  
     3     1    29 1   
     4     2    13 2   
     5     2    14 1   
     6     2    30 1   
     7     3     9 2   
     8     3    10 1   
     9     3    13 1   
    10     4    10 1   
    11     4    11 2   
    12     4    12 1   
    13     5     6 1   
    14     5     8 1   
    15     5    25 1   
    16     5    31 1   
    17     6    26 1   
    18     6    48 1   
    19     6    50 1   
    20     7    26 1   
    21     7    27 1   
    22     7    28 1   
    23     7    32 1   
    24     8    28 1   
    25     8    33 1   
    26     8    34 1   
    27    10    35 1   
    28    12    13 1   
    29    14    15 ar  
    30    15    18 ar  
    31    15    36 1   
    32    16    17 ar  
    33    16    37 1   
    34    17    18 ar  
    35    17    38 1   
    36    18    19 1   
    37    19    20 ar  
    38    19    21 ar  
    39    20    24 ar  
    40    21    22 ar  
    41    21    39 1   
    42    22    23 ar  
    43    23    24 ar  
    44    23    40 1   
    45    24    25 1   
    46    25    41 1   
    47    26    42 1   
    48    26    43 1   
    49    27    44 1   
    50    27    45 1   
    51    27    49 1   
    52    28    46 1   
    53    28    47 1   
@<TRIPOS>SUBSTRUCTURE
     1 0F5         1 TEMP              0 ****  ****    0 ROOT
