@<TRIPOS>MOLECULE
0F5
   52    55     1     0     0
SMALL
bcc


@<TRIPOS>ATOM
      1 C10          0.0000     0.0000     0.0000 ca         1 0F5      -0.048000
      2 C13          2.1350     0.0010    -1.3050 c3         1 0F5       0.208100
      3 C15          1.5120     2.2340    -2.4590 c          1 0F5       0.641700
      4 C17          3.1600     3.7510    -2.2840 c          1 0F5       0.916400
      5 C21          2.1670    -0.1950     8.4530 c3         1 0F5       0.131500
      6 C22          1.2510     0.3030     9.5730 c3         1 0F5      -0.034400
      7 C24          2.4920    -1.1090    11.2180 c3         1 0F5      -0.089500
      8 C26          2.6400    -1.6140     8.7750 c3         1 0F5      -0.034400
      9 O19          0.4150     1.8340    -2.8080 o          1 0F5      -0.695500
     10 N16          1.9230     3.4640    -2.7410 ns         1 0F5      -0.079500
     11 O20          3.7740     4.7890    -2.4000 o          1 0F5      -0.588500
     12 S18          3.6770     2.2620    -1.4730 sx         1 0F5      -0.226900
     13 C14          2.3850     1.4220    -1.7400 ce         1 0F5      -0.816400
     14 C12          1.3830     0.0000     0.0000 ca         1 0F5      -0.092300
     15 C11          2.0760     0.0000     1.1950 ca         1 0F5      -0.099000
     16 C08         -0.6970     0.0050     1.1960 ca         1 0F5      -0.108000
     17 C09         -0.0150     0.0030     2.3950 ca         1 0F5      -0.068000
     18 C07          1.3790    -0.0010     2.4010 cp         1 0F5      -0.185500
     19 C03          2.1180    -0.0010     3.6870 cp         1 0F5       0.409500
     20 N02          1.4550    -0.1020     4.8360 nb         1 0F5      -0.606000
     21 C01          3.5070     0.1000     3.6930 ca         1 0F5       0.219900
     22 N05          4.1660     0.0990     4.8390 nb         1 0F5      -0.495000
     23 C06          3.5100     0.0040     5.9810 ca         1 0F5       0.171900
     24 C04          2.1200    -0.1020     5.9830 ca         1 0F5       0.403900
     25 N28          1.4320    -0.2010     7.1860 nu         1 0F5      -0.511900
     26 C23          2.0180     0.3100    10.8960 c3         1 0F5      -0.021900
     27 N27          3.2290    -1.1040    12.4880 nz         1 0F5       0.079400
     28 C25          3.4080    -1.6080    10.0980 c3         1 0F5      -0.021900
     29 H10         -0.5400     0.0010    -0.9390 ha         1 0F5       0.133000
     30 H13          1.5500    -0.5100    -2.0600 hc         1 0F5       0.019700
     31 H13A         3.0830    -0.5090    -1.1770 hc         1 0F5       0.019700
     32 H21          3.0260     0.4600     8.3740 h1         1 0F5       0.049700
     33 H22          0.3950    -0.3560     9.6570 hc         1 0F5       0.046700
     34 H22A         0.9180     1.3090     9.3450 hc         1 0F5       0.046700
     35 H24          1.6330    -1.7650    11.2970 hx         1 0F5       0.096700
     36 H26          3.2910    -1.9640     7.9830 hc         1 0F5       0.046700
     37 H26A         1.7810    -2.2680     8.8610 hc         1 0F5       0.046700
     38 HN16         1.3640     4.1220    -3.2480 hn         1 0F5       0.207500
     39 H11          3.1590    -0.0020     1.1940 ha         1 0F5       0.097000
     40 H08         -1.7800     0.0060     1.1900 ha         1 0F5       0.109000
     41 H09         -0.5610     0.0050     3.3300 ha         1 0F5       0.115000
     42 H01          4.0480     0.1820     2.7580 h4         1 0F5       0.001100
     43 H06          4.0520     0.0190     6.9180 h4         1 0F5      -0.016900
     44 HN28         0.4330    -0.2630     7.1880 hn         1 0F5       0.308800
     45 H23          1.3670     0.6600    11.6880 hc         1 0F5       0.034700
     46 H23A         2.8770     0.9650    10.8110 hc         1 0F5       0.034700
     47 HN27         2.6300    -0.7780    13.2200 hn         1 0F5       0.224133
     48 HN2A         3.5380    -2.0320    12.6980 hn         1 0F5       0.224133
     49 H25          3.7400    -2.6130    10.3260 hc         1 0F5       0.034700
     50 H25A         4.2640    -0.9490    10.0140 hc         1 0F5       0.034700
     51 HS18         4.8030     1.9570    -0.8390 hs         1 0F5       0.501000
     52 H273         4.0240    -0.5020    12.4100 hn         1 0F5       0.224133
@<TRIPOS>BOND
     1     1    14 ar  
     2     1    16 ar  
     3     1    29 1   
     4     2    13 1   
     5     2    14 1   
     6     2    30 1   
     7     2    31 1   
     8     3     9 2   
     9     3    10 1   
    10     3    13 1   
    11     4    10 1   
    12     4    11 2   
    13     4    12 1   
    14     5     6 1   
    15     5     8 1   
    16     5    25 1   
    17     5    32 1   
    18     6    26 1   
    19     6    33 1   
    20     6    34 1   
    21     7    26 1   
    22     7    27 1   
    23     7    28 1   
    24     7    35 1   
    25     8    28 1   
    26     8    36 1   
    27     8    37 1   
    28    10    38 1   
    29    12    13 2   
    30    12    51 1   
    31    14    15 ar  
    32    15    18 ar  
    33    15    39 1   
    34    16    17 ar  
    35    16    40 1   
    36    17    18 ar  
    37    17    41 1   
    38    18    19 1   
    39    19    20 ar  
    40    19    21 ar  
    41    20    24 ar  
    42    21    22 ar  
    43    21    42 1   
    44    22    23 ar  
    45    23    24 ar  
    46    23    43 1   
    47    24    25 1   
    48    25    44 1   
    49    26    45 1   
    50    26    46 1   
    51    27    47 1   
    52    27    48 1   
    53    27    52 1   
    54    28    49 1   
    55    28    50 1   
@<TRIPOS>SUBSTRUCTURE
     1 0F5         1 TEMP              0 ****  ****    0 ROOT
