@<TRIPOS>MOLECULE
0F9
   20    21     1     0     0
SMALL
bcc


@<TRIPOS>ATOM
      1 CAC          0.0600    -0.4900    -0.0060 cc         1 0F9      -0.282300
      2 CAD          1.4440    -0.2840    -0.0350 cd         1 0F9      -0.153300
      3 NAE          1.7620     0.3920     1.1480 na         1 0F9      -0.019600
      4 NAF          0.7000     0.6210     1.9130 nd         1 0F9      -0.479800
      5 CAB         -0.3770     0.0950     1.2500 cc         1 0F9       0.353800
      6 CAA         -1.7520     0.1290     1.7140 ca         1 0F9      -0.126500
      7 CAK         -2.7620     0.4770     0.8080 ca         1 0F9      -0.079000
      8 CAJ         -4.0970     0.5190     1.2170 ca         1 0F9      -0.022600
      9 Cl1         -5.3050     0.9450     0.0980 cl         1 0F9      -0.096400
     10 CAI         -4.4490     0.2190     2.5360 ca         1 0F9      -0.081000
     11 CAH         -3.4600    -0.1340     3.4460 ca         1 0F9      -0.214000
     12 CAG         -2.1150    -0.1850     3.0410 ca         1 0F9       0.151100
     13 OAM         -1.1190    -0.5620     3.9070 oh         1 0F9      -0.474100
     14 H1          -0.5640    -0.9830    -0.7410 ha         1 0F9       0.167000
     15 H2           2.1980    -0.5520    -0.7720 h4         1 0F9       0.176000
     16 H3           2.6620     0.6840     1.4460 hn         1 0F9       0.320700
     17 H4          -2.4890     0.7200    -0.2310 ha         1 0F9       0.154000
     18 H5          -5.5020     0.2590     2.8550 ha         1 0F9       0.148000
     19 H6          -3.7280    -0.3750     4.4850 ha         1 0F9       0.139000
     20 H7          -1.5170    -0.6920     4.7810 ho         1 0F9       0.418000
@<TRIPOS>BOND
     1     1     2 2   
     2     1     5 1   
     3     1    14 1   
     4     2     3 1   
     5     2    15 1   
     6     3     4 1   
     7     3    16 1   
     8     4     5 2   
     9     5     6 1   
    10     6     7 ar  
    11     6    12 ar  
    12     7     8 ar  
    13     7    17 1   
    14     8     9 1   
    15     8    10 ar  
    16    10    11 ar  
    17    10    18 1   
    18    11    12 ar  
    19    11    19 1   
    20    12    13 1   
    21    13    20 1   
@<TRIPOS>SUBSTRUCTURE
     1 0F9         1 TEMP              0 ****  ****    0 ROOT
