@<TRIPOS>MOLECULE
0F9
   20    21     1     0     0
SMALL
bcc


@<TRIPOS>ATOM
      1 CAC          0.0000     0.0000     0.0000 cc         1 0F9      -0.320300
      2 CAD          1.3500     0.0000     0.0000 cd         1 0F9      -0.265300
      3 NAE          1.7680     0.0000     1.2840 na         1 0F9       0.444400
      4 NAF          0.6360    -0.0000     2.1100 nd         1 0F9      -0.631800
      5 CAB         -0.4320     0.0060     1.3410 cc         1 0F9       0.427800
      6 CAA         -1.8410     0.0090     1.8040 ca         1 0F9      -0.134500
      7 CAK         -2.8820     0.0160     0.8780 ca         1 0F9      -0.063000
      8 CAJ         -4.1920     0.0180     1.3140 ca         1 0F9      -0.065600
      9 Cl1         -5.4890     0.0270     0.1610 cl         1 0F9      -0.030400
     10 CAI         -4.4760     0.0140     2.6700 ca         1 0F9      -0.064000
     11 CAH         -3.4490     0.0080     3.5960 ca         1 0F9      -0.176000
     12 CAG         -2.1310    -0.0010     3.1720 ca         1 0F9       0.164100
     13 OAM         -1.1210    -0.0070     4.0820 oh         1 0F9      -0.457100
     14 H1          -0.6380     0.0020    -0.8760 ha         1 0F9       0.136000
     15 H2           1.9870    -0.0020    -0.8760 h4         1 0F9       0.142000
     16 H3           2.7200    -0.0020     1.5920 hn         1 0F9       0.146700
     17 H4          -2.6640     0.0560    -0.1820 ha         1 0F9       0.121000
     18 H5          -5.5060     0.0180     3.0060 ha         1 0F9       0.113000
     19 H6          -3.6770     0.0020     4.6560 ha         1 0F9       0.114000
     20 H7          -1.2860    -0.6710     4.7300 ho         1 0F9       0.397000
@<TRIPOS>BOND
     1     1     2 2   
     2     1     5 1   
     3     1    14 1   
     4     2     3 1   
     5     2    15 1   
     6     3     4 1   
     7     3    16 1   
     8     4     5 2   
     9     5     6 1   
    10     6     7 ar  
    11     6    12 ar  
    12     7     8 ar  
    13     7    17 1   
    14     8     9 1   
    15     8    10 ar  
    16    10    11 ar  
    17    10    18 1   
    18    11    12 ar  
    19    11    19 1   
    20    12    13 1   
    21    13    20 1   
@<TRIPOS>SUBSTRUCTURE
     1 0F9         1 TEMP              0 ****  ****    0 ROOT
