@<TRIPOS>MOLECULE
molecule
   16    16     1     0     0
SMALL
bcc


@<TRIPOS>ATOM
      1 N2           0.0000     0.0000     0.0000 ns         1 0FI      -0.389100
      2 S2           2.1480     0.1030     1.3800 s          1 0FI      -0.494400
      3 C4           1.3480     0.0000     0.0000 cs         1 0FI       0.390200
      4 C5          -0.6990     0.0000     1.2110 ca         1 0FI       0.007600
      5 C6          -0.3210     0.8620     2.2340 ca         1 0FI      -0.109000
      6 C7          -1.0130     0.8600     3.4280 ca         1 0FI      -0.126500
      7 C8          -2.0810     0.0010     3.6090 ca         1 0FI      -0.121000
      8 C9          -2.4600    -0.8600     2.5930 ca         1 0FI      -0.126500
      9 C10         -1.7750    -0.8590     1.3940 ca         1 0FI      -0.109000
     10 H2           1.8890    -0.0730    -0.9360 h5         1 0FI       0.060200
     11 H3           0.5160     1.5350     2.0930 ha         1 0FI       0.146500
     12 H4          -0.7190     1.5320     4.2250 ha         1 0FI       0.135000
     13 H5          -2.6210    -0.0010     4.5480 ha         1 0FI       0.131000
     14 H6          -3.2980    -1.5310     2.7370 ha         1 0FI       0.135000
     15 H7          -2.0720    -1.5330     0.5990 ha         1 0FI       0.146500
     16 H8          -0.5000     0.0360    -0.8660 hn         1 0FI       0.322500
@<TRIPOS>BOND
     1     2     3 2   
     2     1     3 1   
     3     1     4 1   
     4     5     4 ar  
     5     5     6 ar  
     6     4     9 ar  
     7     6     7 ar  
     8     9     8 ar  
     9     7     8 ar  
    10     3    10 1   
    11     5    11 1   
    12     6    12 1   
    13     7    13 1   
    14     8    14 1   
    15     9    15 1   
    16     1    16 1   
@<TRIPOS>SUBSTRUCTURE
     1 0FI         1 TEMP              0 ****  ****    0 ROOT
