@<TRIPOS>MOLECULE
0FI
   16    16     1     0     0
SMALL
bcc


@<TRIPOS>ATOM
      1 N2           0.0060     0.1200    -0.0140 ns         1 0FI      -0.397100
      2 S2           2.2980    -0.0830    -1.2480 s          1 0FI      -0.432400
      3 C4           1.3470    -0.1170    -0.0020 cs         1 0FI       0.385200
      4 C5          -0.8410     0.0950     1.1100 ca         1 0FI       0.041600
      5 C6          -2.0900     0.7570     1.0380 ca         1 0FI      -0.162500
      6 C7          -2.9520     0.7420     2.1280 ca         1 0FI      -0.100500
      7 C8          -2.6010     0.0780     3.3040 ca         1 0FI      -0.146000
      8 C9          -1.3760    -0.5810     3.3800 ca         1 0FI      -0.100500
      9 C10         -0.4990    -0.5840     2.2990 ca         1 0FI      -0.162500
     10 H2           1.7400    -0.3440     1.0150 h5         1 0FI       0.048200
     11 H3          -2.3870     1.2890     0.1220 ha         1 0FI       0.138500
     12 H4          -3.9200     1.2620     2.0590 ha         1 0FI       0.138000
     13 H5          -3.2870     0.0740     4.1630 ha         1 0FI       0.139000
     14 H6          -1.0950    -1.1130     4.3030 ha         1 0FI       0.138000
     15 H7           0.4510    -1.1310     2.3870 ha         1 0FI       0.138500
     16 H8          -0.4170     0.3860    -0.8820 hn         1 0FI       0.332500
@<TRIPOS>BOND
     1     1     3 1   
     2     1     4 1   
     3     1    16 1   
     4     2     3 2   
     5     3    10 1   
     6     4     5 ar  
     7     4     9 ar  
     8     5     6 ar  
     9     5    11 1   
    10     6     7 ar  
    11     6    12 1   
    12     7     8 ar  
    13     7    13 1   
    14     8     9 ar  
    15     8    14 1   
    16     9    15 1   
@<TRIPOS>SUBSTRUCTURE
     1 0FI         1 TEMP              0 ****  ****    0 ROOT
