@<TRIPOS>MOLECULE
0FI
   16    16     1     0     0
SMALL
bcc


@<TRIPOS>ATOM
      1 N2           0.0000     0.0000     0.0000 ns         1 0FI       0.140900
      2 S2           2.1480     0.1030     1.3800 s          1 0FI      -0.542400
      3 C4           1.3480     0.0000     0.0000 cs         1 0FI       0.241200
      4 C5          -0.6990     0.0000     1.2110 ca         1 0FI      -0.170400
      5 C6          -0.3210     0.8620     2.2340 ca         1 0FI      -0.072000
      6 C7          -1.0130     0.8600     3.4280 ca         1 0FI      -0.101000
      7 C8          -2.0810     0.0010     3.6090 ca         1 0FI      -0.080000
      8 C9          -2.4600    -0.8600     2.5930 ca         1 0FI      -0.101000
      9 C10         -1.7750    -0.8590     1.3940 ca         1 0FI      -0.072000
     10 H2           1.8890    -0.0730    -0.9360 h5         1 0FI       0.033200
     11 H3           0.5160     1.5350     2.0930 ha         1 0FI       0.126000
     12 H4          -0.7190     1.5320     4.2250 ha         1 0FI       0.107500
     13 H5          -2.6210    -0.0010     4.5480 ha         1 0FI       0.103000
     14 H6          -3.2980    -1.5310     2.7370 ha         1 0FI       0.107500
     15 H7          -2.0720    -1.5330     0.5990 ha         1 0FI       0.126000
     16 H8          -0.5000     0.0360    -0.8660 hn         1 0FI       0.152500
@<TRIPOS>BOND
     1     1     3 1   
     2     1     4 1   
     3     1    16 1   
     4     2     3 2   
     5     3    10 1   
     6     4     5 ar  
     7     4     9 ar  
     8     5     6 ar  
     9     5    11 1   
    10     6     7 ar  
    11     6    12 1   
    12     7     8 ar  
    13     7    13 1   
    14     8     9 ar  
    15     8    14 1   
    16     9    15 1   
@<TRIPOS>SUBSTRUCTURE
     1 0FI         1 TEMP              0 ****  ****    0 ROOT
