@<TRIPOS>MOLECULE
0FK
   23    24     1     0     0
SMALL
bcc


@<TRIPOS>ATOM
      1 CAG          0.0950    -0.7870    -0.2790 ca         1 0FK      -0.172300
      2 CAI          1.4620    -0.8690    -0.1490 ca         1 0FK      -0.074000
      3 CAH          2.1060    -0.3190     0.9930 ca         1 0FK      -0.065300
      4 CAN          3.5080    -0.3830     1.1630 ca         1 0FK      -0.160000
      5 CAL          4.1000     0.1590     2.2810 ca         1 0FK      -0.028000
      6 CAM          3.3250     0.7870     3.2770 ca         1 0FK      -0.212000
      7 CAE          1.9500     0.8710     3.1510 ca         1 0FK       0.112800
      8 OAK          1.1550     1.4700     4.0910 oh         1 0FK      -0.479100
      9 CAB          1.2820     0.3150     1.9920 ca         1 0FK       0.373600
     10 NAA         -0.0720     0.3930     1.8590 nb         1 0FK      -0.622000
     11 CAC         -0.6350    -0.1390     0.7660 ca         1 0FK       0.299800
     12 CAD         -2.1020    -0.0620     0.6060 c          1 0FK       0.471600
     13 OAF         -2.7940    -0.4820    -0.3070 o          1 0FK      -0.408100
     14 NAJ         -2.8660     0.6280     1.7200 nz         1 0FK      -0.748400
     15 H1          -0.4400    -1.2010    -1.1480 ha         1 0FK       0.180000
     16 H2           2.0740    -1.3590    -0.9260 ha         1 0FK       0.176000
     17 H3           4.1150    -0.8730     0.3850 ha         1 0FK       0.164000
     18 H4           5.1950     0.1090     2.4120 ha         1 0FK       0.165000
     19 H5           3.8280     1.2120     4.1610 ha         1 0FK       0.163000
     20 H6           1.7230     1.7970     4.8090 ho         1 0FK       0.444000
     21 H7          -2.6950     0.1410     2.6070 hn         1 0FK       0.473800
     22 H8          -3.8710     0.6280     1.5150 hn         1 0FK       0.473800
     23 HAJ3        -2.5340     1.5950     1.8160 hn         1 0FK       0.473800
@<TRIPOS>BOND
     1     1     2 ar  
     2     1    11 ar  
     3     1    15 1   
     4     2     3 ar  
     5     2    16 1   
     6     3     4 ar  
     7     3     9 ar  
     8     4     5 ar  
     9     4    17 1   
    10     5     6 ar  
    11     5    18 1   
    12     6     7 ar  
    13     6    19 1   
    14     7     8 1   
    15     7     9 ar  
    16     8    20 1   
    17     9    10 ar  
    18    10    11 ar  
    19    11    12 1   
    20    12    13 2   
    21    12    14 1   
    22    14    21 1   
    23    14    22 1   
    24    14    23 1   
@<TRIPOS>SUBSTRUCTURE
     1 0FK         1 TEMP              0 ****  ****    0 ROOT
