@<TRIPOS>MOLECULE
molecule
   23    24     1     0     0
SMALL
bcc


@<TRIPOS>ATOM
      1 CAG          0.0000     0.0000     0.0000 ca         1 0FK      -0.182300
      2 CAI          1.3650     0.0000     0.0000 ca         1 0FK      -0.060000
      3 CAH          2.0310     0.0000     1.2400 ca         1 0FK      -0.081300
      4 CAN          3.4320     0.0010     1.3150 ca         1 0FK      -0.137000
      5 CAL          4.0450     0.0010     2.5310 ca         1 0FK      -0.066000
      6 CAM          3.3020     0.0010     3.7090 ca         1 0FK      -0.172000
      7 CAE          1.9370    -0.0000     3.6790 ca         1 0FK       0.099800
      8 OAK          1.2290    -0.0010     4.8370 oh         1 0FK      -0.500100
      9 CAB          1.2660    -0.0000     2.4350 ca         1 0FK       0.396600
     10 NAA         -0.0650    -0.0020     2.3750 nb         1 0FK      -0.663000
     11 CAC         -0.6970     0.0050     1.2170 ca         1 0FK       0.308800
     12 CAD         -2.1790     0.0040     1.2020 c          1 0FK       0.418600
     13 OAF         -2.7760     0.0090     0.1450 o          1 0FK      -0.413100
     14 NAJ         -2.8650    -0.0040     2.3630 nz         1 0FK      -0.672400
     15 H1          -0.5430     0.0060    -0.9370 ha         1 0FK       0.173000
     16 H2           1.9210    -0.0040    -0.9300 ha         1 0FK       0.176000
     17 H3           4.1100     0.0030     0.4690 ha         1 0FK       0.162000
     18 H4           5.1230     0.0030     2.6350 ha         1 0FK       0.160000
     19 H5           3.9270    -0.0670     4.5910 ha         1 0FK       0.168000
     20 H6           1.4710     0.7500     5.3540 ho         1 0FK       0.439000
     21 H7          -2.6270    -0.8230     2.8860 hn         1 0FK       0.482133
     22 H8          -3.8470    -0.0050     2.1710 hn         1 0FK       0.482133
     23 HAJ3        -2.6300     0.8110     2.8940 hn         1 0FK       0.482133
@<TRIPOS>BOND
     1     8     7 1   
     2     6     7 ar  
     3     6     5 ar  
     4     7     9 ar  
     5     5     4 ar  
     6     9    10 ar  
     7     9     3 ar  
     8     4     3 ar  
     9    10    11 ar  
    10     3     2 ar  
    11    13    12 2   
    12    11    12 1   
    13    11     1 ar  
    14     2     1 ar  
    15    12    14 1   
    16     1    15 1   
    17     2    16 1   
    18     4    17 1   
    19     5    18 1   
    20     6    19 1   
    21     8    20 1   
    22    14    21 1   
    23    14    22 1   
    24    23    14 1   
@<TRIPOS>SUBSTRUCTURE
     1 0FK         1 TEMP              0 ****  ****    0 ROOT
