@<TRIPOS>MOLECULE
0FK
   23    24     1     0     0
SMALL
bcc


@<TRIPOS>ATOM
      1 CAG          0.0000     0.0000     0.0000 ca         1 0FK      -0.142300
      2 CAI          1.3650     0.0000     0.0000 ca         1 0FK      -0.032000
      3 CAH          2.0310     0.0000     1.2400 ca         1 0FK      -0.068300
      4 CAN          3.4320     0.0010     1.3150 ca         1 0FK      -0.115000
      5 CAL          4.0450     0.0010     2.5310 ca         1 0FK      -0.024000
      6 CAM          3.3020     0.0010     3.7090 ca         1 0FK      -0.158000
      7 CAE          1.9370    -0.0000     3.6790 ca         1 0FK       0.116800
      8 OAK          1.2290    -0.0010     4.8370 oh         1 0FK      -0.484100
      9 CAB          1.2660    -0.0000     2.4350 ca         1 0FK       0.334600
     10 NAA         -0.0650    -0.0020     2.3750 nb         1 0FK      -0.531000
     11 CAC         -0.6970     0.0050     1.2170 ca         1 0FK       0.233800
     12 CAD         -2.1790     0.0040     1.2020 c          1 0FK       0.253600
     13 OAF         -2.7760     0.0090     0.1450 o          1 0FK      -0.427100
     14 NAJ         -2.8650    -0.0040     2.3630 nz         1 0FK       0.210600
     15 H1          -0.5430     0.0060    -0.9370 ha         1 0FK       0.141000
     16 H2           1.9210    -0.0040    -0.9300 ha         1 0FK       0.137000
     17 H3           4.1100     0.0030     0.4690 ha         1 0FK       0.132000
     18 H4           5.1230     0.0030     2.6350 ha         1 0FK       0.122000
     19 H5           3.9270    -0.0670     4.5910 ha         1 0FK       0.136000
     20 H6           1.4710     0.7500     5.3540 ho         1 0FK       0.420000
     21 H7          -2.6270    -0.8230     2.8860 hn         1 0FK       0.247467
     22 H8          -3.8470    -0.0050     2.1710 hn         1 0FK       0.247467
     23 HAJ3        -2.6300     0.8110     2.8940 hn         1 0FK       0.247467
@<TRIPOS>BOND
     1     1     2 ar  
     2     1    11 ar  
     3     1    15 1   
     4     2     3 ar  
     5     2    16 1   
     6     3     4 ar  
     7     3     9 ar  
     8     4     5 ar  
     9     4    17 1   
    10     5     6 ar  
    11     5    18 1   
    12     6     7 ar  
    13     6    19 1   
    14     7     8 1   
    15     7     9 ar  
    16     8    20 1   
    17     9    10 ar  
    18    10    11 ar  
    19    11    12 1   
    20    12    13 2   
    21    12    14 1   
    22    14    21 1   
    23    14    22 1   
    24    14    23 1   
@<TRIPOS>SUBSTRUCTURE
     1 0FK         1 TEMP              0 ****  ****    0 ROOT
