@<TRIPOS>MOLECULE
0FN
   18    19     1     0     0
SMALL
bcc


@<TRIPOS>ATOM
      1 OAH          0.0280     0.7220    -0.0640 o          1 0FN      -0.476100
      2 CAC          1.2200     0.4390    -0.0730 c          1 0FN       0.592700
      3 CAD          2.0980     0.1860     1.0900 ca         1 0FN      -0.152600
      4 CAK          1.7770     0.1730     2.4360 ca         1 0FN      -0.065000
      5 CAL          2.7970    -0.0970     3.3620 ca         1 0FN      -0.113000
      6 CAM          4.0990    -0.3450     2.9380 ca         1 0FN      -0.113000
      7 CAJ          4.4290    -0.3310     1.5740 ca         1 0FN      -0.065000
      8 CAE          3.4250    -0.0660     0.6580 ca         1 0FN      -0.152600
      9 CAB          3.5070     0.0050    -0.8170 c          1 0FN       0.592700
     10 OAI          4.5020    -0.1280    -1.5190 o          1 0FN      -0.476100
     11 CAA          2.0940     0.3250    -1.3330 c3         1 0FN      -0.207600
     12 CAF          1.6070    -0.6820    -2.2420 c1         1 0FN       0.223700
     13 NAG          1.2130    -1.4860    -2.9830 n1         1 0FN      -0.328800
     14 H1           0.7460     0.3680     2.7710 ha         1 0FN       0.159000
     15 H2           2.5580    -0.1130     4.4370 ha         1 0FN       0.146000
     16 H3           4.8860    -0.5560     3.6790 ha         1 0FN       0.146000
     17 H4           5.4590    -0.5270     1.2380 ha         1 0FN       0.159000
     18 H5           2.1130     1.3250    -1.8580 hc         1 0FN       0.133700
@<TRIPOS>BOND
     1     1     2 2   
     2     2     3 1   
     3     2    11 1   
     4     3     4 ar  
     5     3     8 ar  
     6     4     5 ar  
     7     4    14 1   
     8     5     6 ar  
     9     5    15 1   
    10     6     7 ar  
    11     6    16 1   
    12     7     8 ar  
    13     7    17 1   
    14     8     9 1   
    15     9    10 2   
    16     9    11 1   
    17    11    12 1   
    18    11    18 1   
    19    12    13 3   
@<TRIPOS>SUBSTRUCTURE
     1 0FN         1 TEMP              0 ****  ****    0 ROOT
