@<TRIPOS>MOLECULE
molecule
   18    19     1     0     0
SMALL
bcc


@<TRIPOS>ATOM
      1 OAH          0.0000     0.0000     0.0000 o          1 0FN      -0.469600
      2 CAC          1.2130     0.0000     0.0000 c          1 0FN       0.595700
      3 CAD          2.0860     0.0000     1.1860 ca         1 0FN      -0.156600
      4 CAK          1.7730    -0.0010     2.5490 ca         1 0FN      -0.067500
      5 CAL          2.7830    -0.0020     3.4910 ca         1 0FN      -0.110000
      6 CAM          4.1100    -0.0020     3.0970 ca         1 0FN      -0.110000
      7 CAJ          4.4410    -0.0000     1.7560 ca         1 0FN      -0.067500
      8 CAE          3.4360    -0.0010     0.7860 ca         1 0FN      -0.156600
      9 CAB          3.5210     0.0010    -0.6860 c          1 0FN       0.595700
     10 OAI          4.5360     0.0020    -1.3470 o          1 0FN      -0.469600
     11 CAA          2.1070    -0.0060    -1.2170 c3         1 0FN      -0.202600
     12 CAF          1.8720    -1.2150    -2.0240 c1         1 0FN       0.225700
     13 NAG          1.7060    -2.1570    -2.6370 n1         1 0FN      -0.326800
     14 H1           0.7370    -0.0020     2.8660 ha         1 0FN       0.152000
     15 H2           2.5390    -0.0030     4.5460 ha         1 0FN       0.144000
     16 H3           4.8960    -0.0030     3.8420 ha         1 0FN       0.144000
     17 H4           5.4820    -0.0000     1.4570 ha         1 0FN       0.152000
     18 H5           1.9300     0.8830    -1.8100 hc         1 0FN       0.129700
@<TRIPOS>BOND
     1    10     9 2
     2     7     6 ar
     3     7     8 ar
     4     6     5 ar
     5     9     8 1
     6     9    11 1
     7     8     3 ar
     8     5     4 ar
     9    11    12 1
    10    11     2 1
    11    12    13 3
    12     3     4 ar
    13     3     2 1
    14     2     1 2
    15     4    14 1
    16     5    15 1
    17     6    16 1
    18     7    17 1
    19    11    18 1
@<TRIPOS>SUBSTRUCTURE
     1 0FN         1 TEMP              0 ****  ****    0 ROOT
