@<TRIPOS>MOLECULE
0FN
   18    19     1     0     0
SMALL
bcc


@<TRIPOS>ATOM
      1 OAH          0.0000     0.0000     0.0000 o          1 0FN      -0.502600
      2 CAC          1.2130     0.0000     0.0000 c          1 0FN       0.638700
      3 CAD          2.0860     0.0000     1.1860 ca         1 0FN      -0.168100
      4 CAK          1.7730    -0.0010     2.5490 ca         1 0FN      -0.029500
      5 CAL          2.7830    -0.0020     3.4910 ca         1 0FN      -0.082500
      6 CAM          4.1100    -0.0020     3.0970 ca         1 0FN      -0.082500
      7 CAJ          4.4410    -0.0000     1.7560 ca         1 0FN      -0.029500
      8 CAE          3.4360    -0.0010     0.7860 ca         1 0FN      -0.168100
      9 CAB          3.5210     0.0010    -0.6860 c          1 0FN       0.638700
     10 OAI          4.5360     0.0020    -1.3470 o          1 0FN      -0.502600
     11 CAA          2.1070    -0.0060    -1.2170 c3         1 0FN      -0.111600
     12 CAF          1.8720    -1.2150    -2.0240 c1         1 0FN       0.201700
     13 NAG          1.7060    -2.1570    -2.6370 n1         1 0FN      -0.343800
     14 H1           0.7370    -0.0020     2.8660 ha         1 0FN       0.118000
     15 H2           2.5390    -0.0030     4.5460 ha         1 0FN       0.111000
     16 H3           4.8960    -0.0030     3.8420 ha         1 0FN       0.111000
     17 H4           5.4820    -0.0000     1.4570 ha         1 0FN       0.118000
     18 H5           1.9300     0.8830    -1.8100 hc         1 0FN       0.082700
@<TRIPOS>BOND
     1     1     2 2   
     2     2     3 1   
     3     2    11 1   
     4     3     4 ar  
     5     3     8 ar  
     6     4     5 ar  
     7     4    14 1   
     8     5     6 ar  
     9     5    15 1   
    10     6     7 ar  
    11     6    16 1   
    12     7     8 ar  
    13     7    17 1   
    14     8     9 1   
    15     9    10 2   
    16     9    11 1   
    17    11    12 1   
    18    11    18 1   
    19    12    13 3   
@<TRIPOS>SUBSTRUCTURE
     1 0FN         1 TEMP              0 ****  ****    0 ROOT
