@<TRIPOS>MOLECULE
0FO
   18    19     1     0     0
SMALL
bcc


@<TRIPOS>ATOM
      1 CAD          0.0000     0.0000     0.0000 cc         1 0FO      -0.340200
      2 CAE          1.4030     0.0000     0.0000 c          1 0FO       0.800800
      3 OAG          1.9960     0.0010    -1.0650 o          1 0FO      -0.623500
      4 OAF          2.1120     0.0000     1.1410 os         1 0FO      -0.277200
      5 CAA          1.5090    -0.0000     2.3500 ca         1 0FO       0.188100
      6 CAL          2.2610     0.0010     3.5170 ca         1 0FO      -0.131000
      7 CAK          1.6290     0.0010     4.7430 ca         1 0FO      -0.024000
      8 CAJ          0.2440    -0.0000     4.8250 ca         1 0FO      -0.010900
      9 Br1         -0.5980    -0.0000     6.5190 br         1 0FO      -0.111100
     10 CAI         -0.5200    -0.0010     3.6780 ca         1 0FO      -0.006000
     11 CAB          0.1070    -0.0000     2.4310 ca         1 0FO      -0.183800
     12 CAC         -0.6780    -0.0000     1.1870 cd         1 0FO       0.250900
     13 OAH         -2.0300     0.0060     1.2170 oh         1 0FO      -0.486100
     14 H1          -0.5420     0.0970    -0.9330 ha         1 0FO       0.153000
     15 H2           3.3430     0.0020     3.4640 ha         1 0FO       0.129000
     16 H3           2.2200     0.0020     5.6510 ha         1 0FO       0.120000
     17 H4          -1.6020    -0.0020     3.7440 ha         1 0FO       0.131000
     18 H5          -2.3570    -0.7890     0.8300 ho         1 0FO       0.421000
@<TRIPOS>BOND
     1     1     2 1   
     2     1    12 2   
     3     1    14 1   
     4     2     3 2   
     5     2     4 1   
     6     4     5 1   
     7     5     6 ar  
     8     5    11 ar  
     9     6     7 ar  
    10     6    15 1   
    11     7     8 ar  
    12     7    16 1   
    13     8     9 1   
    14     8    10 ar  
    15    10    11 ar  
    16    10    17 1   
    17    11    12 1   
    18    12    13 1   
    19    13    18 1   
@<TRIPOS>SUBSTRUCTURE
     1 0FO         1 TEMP              0 ****  ****    0 ROOT
