@<TRIPOS>MOLECULE
0FO
   18    19     1     0     0
SMALL
bcc


@<TRIPOS>ATOM
      1 CAD         -0.0150     0.0860     0.0600 cc         1 0FO      -0.377200
      2 CAE          1.4230    -0.0240    -0.0560 c          1 0FO       0.742800
      3 OAG          2.1280    -0.0750    -1.0610 o          1 0FO      -0.562500
      4 OAF          2.2120    -0.0870     1.1020 os         1 0FO      -0.326200
      5 CAA          1.5970    -0.0430     2.3290 ca         1 0FO       0.178100
      6 CAL          2.4450    -0.1110     3.4530 ca         1 0FO      -0.155000
      7 CAK          1.8880    -0.0710     4.7210 ca         1 0FO      -0.051000
      8 CAJ          0.4960     0.0350     4.8920 ca         1 0FO      -0.068900
      9 Br1         -0.2240     0.0860     6.6170 br         1 0FO      -0.071100
     10 CAI         -0.3420     0.1020     3.7840 ca         1 0FO      -0.024000
     11 CAB          0.2010     0.0640     2.4900 ca         1 0FO      -0.161800
     12 CAC         -0.6060     0.1290     1.2860 cd         1 0FO       0.248900
     13 OAH         -1.9520     0.2320     1.4850 oh         1 0FO      -0.478100
     14 H1          -0.5770     0.1320    -0.8820 ha         1 0FO       0.173000
     15 H2           3.5310    -0.1940     3.3040 ha         1 0FO       0.168000
     16 H3           2.5490    -0.1240     5.6020 ha         1 0FO       0.157000
     17 H4          -1.4370     0.1860     3.8950 ha         1 0FO       0.169000
     18 H5          -2.3900     0.2680     0.6190 ho         1 0FO       0.439000
@<TRIPOS>BOND
     1     1     2 1   
     2     1    12 2   
     3     1    14 1   
     4     2     3 2   
     5     2     4 1   
     6     4     5 1   
     7     5     6 ar  
     8     5    11 ar  
     9     6     7 ar  
    10     6    15 1   
    11     7     8 ar  
    12     7    16 1   
    13     8     9 1   
    14     8    10 ar  
    15    10    11 ar  
    16    10    17 1   
    17    11    12 1   
    18    12    13 1   
    19    13    18 1   
@<TRIPOS>SUBSTRUCTURE
     1 0FO         1 TEMP              0 ****  ****    0 ROOT
