@<TRIPOS>MOLECULE
0FS
   24    25     1     0     0
SMALL
bcc


@<TRIPOS>ATOM
      1 C01         -0.0370    -0.0440    -0.0590 ca         1 0FS      -0.072000
      2 C02          1.9660     0.0760     1.2860 ca         1 0FS      -0.060000
      3 C03          1.3470     0.0590     0.0360 ca         1 0FS      -0.138000
      4 C04          1.1840    -0.0120     2.4390 ca         1 0FS      -0.170300
      5 C05         -0.8310    -0.1450     1.1000 ca         1 0FS      -0.089800
      6 C06         -0.2050    -0.1250     2.3540 ca         1 0FS      -0.055000
      7 C07         -4.6200    -0.6960     1.5060 c          1 0FS       0.706700
      8 N08         -5.3930    -1.1260     2.5980 ns         1 0FS      -0.611500
      9 C09         -4.6720    -1.4000     3.7670 c          1 0FS       0.710100
     10 S10         -2.9420    -1.1000     3.4890 ss         1 0FS      -0.102200
     11 C11         -3.1690    -0.6310     1.8620 cc         1 0FS      -0.135600
     12 C12          1.8510     0.0330     3.8090 c3         1 0FS       0.688200
     13 C13         -2.2660    -0.2550     0.9400 cf         1 0FS       0.010800
     14 O15         -5.1950    -1.7880     4.8140 o          1 0FS      -0.543500
     15 F16          3.1510    -0.4110     3.8250 f          1 0FS      -0.233300
     16 F17          1.2260    -0.7190     4.7730 f          1 0FS      -0.233300
     17 F18          1.9200     1.2920     4.3560 f          1 0FS      -0.233300
     18 H1          -0.5190    -0.0520    -1.0500 ha         1 0FS       0.146000
     19 H2           3.0630     0.1550     1.3670 ha         1 0FS       0.158000
     20 H3           1.9580     0.1300    -0.8770 ha         1 0FS       0.150000
     21 H4          -0.7940    -0.1840     3.2870 ha         1 0FS       0.161000
     22 H5          -6.3790    -1.2300     2.5390 hn         1 0FS       0.357500
     23 H6          -2.6470    -0.0050    -0.0740 ha         1 0FS       0.164000
     24 O14         -5.1140    -0.4170     0.4070 o          1 0FS      -0.573500
@<TRIPOS>BOND
     1     1     3 ar  
     2     1     5 ar  
     3     1    18 1   
     4     2     3 ar  
     5     2     4 ar  
     6     2    19 1   
     7     3    20 1   
     8     4     6 ar  
     9     4    12 1   
    10     5     6 ar  
    11     5    13 1   
    12     6    21 1   
    13     7     8 1   
    14     7    11 1   
    15     7    24 2   
    16     8     9 1   
    17     8    22 1   
    18     9    10 1   
    19     9    14 2   
    20    10    11 1   
    21    11    13 2   
    22    12    15 1   
    23    12    16 1   
    24    12    17 1   
    25    13    23 1   
@<TRIPOS>SUBSTRUCTURE
     1 0FS         1 TEMP              0 ****  ****    0 ROOT
