@<TRIPOS>MOLECULE
0FS
   24    25     1     0     0
SMALL
bcc


@<TRIPOS>ATOM
      1 C01          0.0000     0.0000     0.0000 ca         1 0FS      -0.033000
      2 C02          2.0750     0.0000     1.1970 ca         1 0FS      -0.026000
      3 C03          1.3790     0.0000     0.0000 ca         1 0FS      -0.111000
      4 C04          1.3940    -0.0110     2.4010 ca         1 0FS      -0.205300
      5 C05         -0.6960     0.0000     1.2140 ca         1 0FS      -0.113800
      6 C06          0.0160    -0.0050     2.4190 ca         1 0FS      -0.042000
      7 C07         -4.2800     0.3640     2.5830 c          1 0FS       0.625700
      8 N08         -4.6580     0.8500     3.7550 ns         1 0FS      -0.157500
      9 C09         -3.7380     1.3420     4.5920 c          1 0FS       0.669100
     10 S10         -2.1660     1.1720     3.7910 ss         1 0FS      -0.276200
     11 C11         -2.8350     0.4260     2.3260 cc         1 0FS      -0.119600
     12 C12          2.1620    -0.0290     3.6980 c3         1 0FS       0.641200
     13 C13         -2.1660     0.0070     1.2240 cf         1 0FS       0.110800
     14 O15         -3.9420     1.8160     5.6930 o          1 0FS      -0.561500
     15 F16          1.8270    -1.1770     4.4220 f          1 0FS      -0.205300
     16 F17          3.5350    -0.0320     3.4270 f          1 0FS      -0.205300
     17 F18          1.8370     1.1070     4.4480 f          1 0FS      -0.205300
     18 H1          -0.5430     0.0020    -0.9370 ha         1 0FS       0.110000
     19 H2           3.1590    -0.0020     1.1900 ha         1 0FS       0.123000
     20 H3           1.9190     0.0040    -0.9390 ha         1 0FS       0.115000
     21 H4          -0.5150    -0.0090     3.3640 ha         1 0FS       0.161000
     22 H5          -5.6250     0.8480     4.0130 hn         1 0FS       0.199500
     23 H6          -2.7100    -0.4350     0.3980 ha         1 0FS       0.128000
     24 O14         -5.0690    -0.1000     1.7820 o          1 0FS      -0.617500
@<TRIPOS>BOND
     1     1     3 ar  
     2     1     5 ar  
     3     1    18 1   
     4     2     3 ar  
     5     2     4 ar  
     6     2    19 1   
     7     3    20 1   
     8     4     6 ar  
     9     4    12 1   
    10     5     6 ar  
    11     5    13 1   
    12     6    21 1   
    13     7     8 1   
    14     7    11 1   
    15     7    24 2   
    16     8     9 1   
    17     8    22 1   
    18     9    10 1   
    19     9    14 2   
    20    10    11 1   
    21    11    13 2   
    22    12    15 1   
    23    12    16 1   
    24    12    17 1   
    25    13    23 1   
@<TRIPOS>SUBSTRUCTURE
     1 0FS         1 TEMP              0 ****  ****    0 ROOT
