@<TRIPOS>MOLECULE
molecule
   24    25     1     0     0
SMALL
bcc


@<TRIPOS>ATOM
      1 C01          0.0000     0.0000     0.0000 ca         1 0FS      -0.071000
      2 C02          2.0750     0.0000     1.1970 ca         1 0FS      -0.065000
      3 C03          1.3790     0.0000     0.0000 ca         1 0FS      -0.135000
      4 C04          1.3940    -0.0110     2.4010 ca         1 0FS      -0.177300
      5 C05         -0.6960     0.0000     1.2140 ca         1 0FS      -0.098800
      6 C06          0.0160    -0.0050     2.4190 ca         1 0FS      -0.063000
      7 C07         -4.2800     0.3640     2.5830 c          1 0FS       0.707700
      8 N08         -4.6580     0.8500     3.7550 ns         1 0FS      -0.578500
      9 C09         -3.7380     1.3420     4.5920 c          1 0FS       0.721100
     10 S10         -2.1660     1.1720     3.7910 ss         1 0FS      -0.194200
     11 C11         -2.8350     0.4260     2.3260 cc         1 0FS      -0.109600
     12 C12          2.1620    -0.0290     3.6980 c3         1 0FS       0.674200
     13 C13         -2.1660     0.0070     1.2240 cf         1 0FS       0.033800
     14 O15         -3.9420     1.8160     5.6930 o          1 0FS      -0.538500
     15 F16          1.8270    -1.1770     4.4220 f          1 0FS      -0.219967
     16 F17          3.5350    -0.0320     3.4270 f          1 0FS      -0.219967
     17 F18          1.8370     1.1070     4.4480 f          1 0FS      -0.219967
     18 H1          -0.5430     0.0020    -0.9370 ha         1 0FS       0.143000
     19 H2           3.1590    -0.0020     1.1900 ha         1 0FS       0.155000
     20 H3           1.9190     0.0040    -0.9390 ha         1 0FS       0.146000
     21 H4          -0.5150    -0.0090     3.3640 ha         1 0FS       0.168000
     22 H5          -5.6250     0.8480     4.0130 hn         1 0FS       0.354500
     23 H6          -2.7100    -0.4350     0.3980 ha         1 0FS       0.169000
     24 O14         -5.0690    -0.1000     1.7820 o          1 0FS      -0.582500
@<TRIPOS>BOND
     1     3     1 ar
     2     3     2 ar
     3     1     5 ar
     4     2     4 ar
     5     5    13 1
     6     5     6 ar
     7     4     6 ar
     8     4    12 1
     9    13    11 2
    10    15    12 1
    11    24     7 2
    12    17    12 1
    13    12    16 1
    14    11     7 1
    15    11    10 1
    16     7     8 1
    17    10     9 1
    18     8     9 1
    19     9    14 2
    20     1    18 1
    21     2    19 1
    22     3    20 1
    23     6    21 1
    24     8    22 1
    25    13    23 1
@<TRIPOS>SUBSTRUCTURE
     1 0FS         1 TEMP              0 ****  ****    0 ROOT
