@<TRIPOS>MOLECULE
molecule
   41    43     1     0     0
SMALL
bcc


@<TRIPOS>ATOM
      1 C4           0.0000     0.0000     0.0000 c          1 0FT       0.708700
      2 C5           1.4160     0.0000     0.0000 cc         1 0FT      -0.278400
      3 C6           2.0730     0.0000     1.1800 cd         1 0FT       0.039600
      4 C8           2.3190     1.4210     4.0700 cd         1 0FT       0.227600
      5 C9           1.5530     2.1510     4.9130 cc         1 0FT      -0.232600
      6 N1           1.3640    -0.0000     2.3500 n          1 0FT      -0.361000
      7 N3          -0.6620    -0.0000     1.1750 ns         1 0FT      -0.558500
      8 C2           0.0180    -0.0010     2.3360 c          1 0FT       0.811500
      9 O4          -0.6140     0.0050    -1.0520 o          1 0FT      -0.620500
     10 C5A          2.1800    -0.0000    -1.2990 c3         1 0FT      -0.012900
     11 N5           3.3390     2.2070     3.7070 nd         1 0FT      -0.358000
     12 N6           3.2100     3.3500     4.2840 nc         1 0FT      -0.191800
     13 N7           2.1520     3.3590     5.0160 na         1 0FT       0.125400
     14 C1'          1.6790     4.4860     5.8260 c3         1 0FT       0.261800
     15 O4'          1.3380     5.5970     4.9820 os         1 0FT      -0.378600
     16 C4'          1.6990     6.8270     5.6240 c3         1 0FT       0.136100
     17 C5'          0.4480     7.6730     5.8650 c3         1 0FT       0.132400
     18 O5'         -0.0970     8.0850     4.6100 oh         1 0FT      -0.590800
     19 C3'          2.3620     6.4720     6.9720 c3         1 0FT       0.093100
     20 O3'          3.4840     7.3190     7.2260 oh         1 0FT      -0.585800
     21 C2'          2.8160     5.0050     6.7400 c3         1 0FT       0.085100
     22 O2'          2.8610     4.2790     7.9700 oh         1 0FT      -0.597800
     23 H1           3.1560    -0.0000     1.2000 h4         1 0FT       0.174000
     24 H2           3.0250    -0.5100     3.5160 h1         1 0FT       0.083200
     25 H3           1.4790    -0.5120     4.3760 h1         1 0FT       0.083200
     26 H4           0.6410     1.8320     5.4050 h4         1 0FT       0.199000
     27 H5          -1.6630    -0.0000     1.1830 hn         1 0FT       0.362500
     28 H6           1.8860    -0.8580    -1.8910 hc         1 0FT       0.048033
     29 H7           3.2430    -0.0510    -1.0930 hc         1 0FT       0.048033
     30 H8           1.9620     0.9090    -1.8460 hc         1 0FT       0.048033
     31 H9           0.8230     4.1940     6.4230 h2         1 0FT       0.097700
     32 H10          2.4020     7.3700     5.0040 h1         1 0FT       0.104700
     33 H11          0.7090     8.5460     6.4500 h1         1 0FT       0.028700
     34 H12         -0.2870     7.0850     6.4020 h1         1 0FT       0.028700
     35 H13         -0.8020     8.6950     4.7580 ho         1 0FT       0.406000
     36 H14          1.6400     6.5260     7.7790 h1         1 0FT       0.062700
     37 H15          3.4550     7.6210     8.1190 ho         1 0FT       0.414000
     38 H16          3.7690     4.9730     6.2270 h1         1 0FT       0.099700
     39 H17          3.7590     4.1430     8.2230 ho         1 0FT       0.422000
     40 C7           2.0760    -0.0000     3.6310 c3         1 0FT       0.105700
     41 O2          -0.5930    -0.0010     3.3880 o          1 0FT      -0.670500
@<TRIPOS>BOND
     1    22    21 1
     2    21    14 1
     3    21    19 1
     4    18    17 1
     5    14    15 1
     6    14    13 1
     7    17    16 1
     8    10     2 1
     9    15    16 1
    10    19    16 1
    11    19    20 1
    12     5    13 1
    13     5     4 2
    14    13    12 1
    15     2     3 2
    16     2     1 1
    17     3     6 1
    18     9     1 2
    19     1     7 1
    20     4    40 1
    21     4    11 1
    22    12    11 2
    23     6    40 1
    24     6     8 1
    25     7     8 1
    26     8    41 2
    27     3    23 1
    28    40    24 1
    29    40    25 1
    30     5    26 1
    31     7    27 1
    32    10    28 1
    33    10    29 1
    34    10    30 1
    35    14    31 1
    36    16    32 1
    37    17    33 1
    38    17    34 1
    39    18    35 1
    40    19    36 1
    41    20    37 1
    42    21    38 1
    43    22    39 1
@<TRIPOS>SUBSTRUCTURE
     1 0FT         1 TEMP              0 ****  ****    0 ROOT
