@<TRIPOS>MOLECULE
0FT
   41    43     1     0     0
SMALL
bcc


@<TRIPOS>ATOM
      1 C4           1.1550    -0.4180    -0.3610 c          1 0FT       0.716700
      2 C5           1.8780     0.5100     0.5260 cc         1 0FT      -0.257400
      3 C6           1.6060     0.5230     1.8610 cd         1 0FT       0.047600
      4 C8           1.5480    -0.9990     4.6040 cc         1 0FT       0.202600
      5 C9           1.5340    -2.2520     5.2430 cd         1 0FT      -0.166600
      6 N1           0.6300    -0.2820     2.4330 n          1 0FT      -0.370000
      7 N3           0.2020    -1.2510     0.2540 ns         1 0FT      -0.583500
      8 C2          -0.0600    -1.2300     1.6310 c          1 0FT       0.804500
      9 O4           1.3260    -0.5210    -1.5870 o          1 0FT      -0.610500
     10 C5A          2.8800     1.3970    -0.0960 c3         1 0FT      -0.029900
     11 N5           2.8510    -0.4640     4.7870 nc         1 0FT      -0.351000
     12 N6           3.5560    -1.2740     5.4590 nd         1 0FT      -0.155800
     13 N7           2.8320    -2.3850     5.7570 na         1 0FT       0.023400
     14 C1'          3.2790    -3.4850     6.6070 c3         1 0FT       0.261800
     15 O4'          3.4570    -3.0310     7.9530 os         1 0FT      -0.397600
     16 C4'          4.8580    -2.8820     8.2290 c3         1 0FT       0.061100
     17 C5'          5.0710    -3.1220     9.7220 c3         1 0FT       0.125400
     18 O5'          6.4240    -2.8740    10.0480 oh         1 0FT      -0.599800
     19 C3'          5.5820    -3.9150     7.3430 c3         1 0FT       0.088100
     20 O3'          6.8160    -3.4320     6.8580 oh         1 0FT      -0.586800
     21 C2'          4.6320    -4.1170     6.1410 c3         1 0FT       0.118100
     22 O2'          4.3540    -5.4840     5.9180 oh         1 0FT      -0.593800
     23 H1           2.1450     1.1880     2.5650 h4         1 0FT       0.180000
     24 H2           0.3790     0.7560     4.2290 h1         1 0FT       0.088700
     25 H3          -0.5190    -0.8430     4.0950 h1         1 0FT       0.088700
     26 H4           0.7590    -3.0090     5.3520 h4         1 0FT       0.204000
     27 H5          -0.3110    -1.9070    -0.2950 hn         1 0FT       0.351500
     28 H6           3.5420     0.8060    -0.7780 hc         1 0FT       0.051367
     29 H7           2.3690     2.1810    -0.7100 hc         1 0FT       0.051367
     30 H8           3.5110     1.9000     0.6770 hc         1 0FT       0.051367
     31 H9           2.4520    -4.2530     6.6430 h2         1 0FT       0.119700
     32 H10          5.1730    -1.8400     7.9450 h1         1 0FT       0.077700
     33 H11          4.8970    -4.1980     9.9870 h1         1 0FT       0.067200
     34 H12          4.3780    -2.4720    10.3170 h1         1 0FT       0.067200
     35 H13          6.5560    -1.9180    10.0310 ho         1 0FT       0.405000
     36 H14          5.7340    -4.8820     7.8950 h1         1 0FT       0.068700
     37 H15          7.3620    -3.2540     7.6370 ho         1 0FT       0.423000
     38 H16          5.0560    -3.6390     5.2180 h1         1 0FT       0.097700
     39 H17          5.1620    -5.8760     5.5610 ho         1 0FT       0.424000
     40 C7           0.4540    -0.3140     3.8710 c3         1 0FT       0.087700
     41 O2          -0.9020    -2.0100     2.1300 o          1 0FT      -0.652500
@<TRIPOS>BOND
     1     1     2 1   
     2     1     7 1   
     3     1     9 2   
     4     2     3 2   
     5     2    10 1   
     6     3     6 1   
     7     3    23 1   
     8     4     5 2   
     9     4    11 1   
    10     4    40 1   
    11     5    13 1   
    12     5    26 1   
    13     6     8 1   
    14     6    40 1   
    15     7     8 1   
    16     7    27 1   
    17     8    41 2   
    18    10    28 1   
    19    10    29 1   
    20    10    30 1   
    21    11    12 2   
    22    12    13 1   
    23    13    14 1   
    24    14    15 1   
    25    14    21 1   
    26    14    31 1   
    27    15    16 1   
    28    16    17 1   
    29    16    19 1   
    30    16    32 1   
    31    17    18 1   
    32    17    33 1   
    33    17    34 1   
    34    18    35 1   
    35    19    20 1   
    36    19    21 1   
    37    19    36 1   
    38    20    37 1   
    39    21    22 1   
    40    21    38 1   
    41    22    39 1   
    42    24    40 1   
    43    25    40 1   
@<TRIPOS>SUBSTRUCTURE
     1 0FT         1 TEMP              0 ****  ****    0 ROOT
