@<TRIPOS>MOLECULE
0FT
   41    43     1     0     0
SMALL
bcc


@<TRIPOS>ATOM
      1 C4           0.0000     0.0000     0.0000 c          1 0FT       0.619700
      2 C5           1.4160     0.0000     0.0000 cc         1 0FT      -0.281400
      3 C6           2.0730     0.0000     1.1800 cd         1 0FT      -0.091400
      4 C8           2.3190     1.4210     4.0700 cc         1 0FT       0.214600
      5 C9           1.5530     2.1510     4.9130 cd         1 0FT      -0.392600
      6 N1           1.3640    -0.0000     2.3500 n          1 0FT       0.054000
      7 N3          -0.6620    -0.0000     1.1750 ns         1 0FT      -0.123500
      8 C2           0.0180    -0.0010     2.3360 c          1 0FT       0.586500
      9 O4          -0.6140     0.0050    -1.0520 o          1 0FT      -0.659500
     10 C5A          2.1800    -0.0000    -1.2990 c3         1 0FT       0.103100
     11 N5           3.3390     2.2070     3.7070 nc         1 0FT      -0.309000
     12 N6           3.2100     3.3500     4.2840 nd         1 0FT      -0.358800
     13 N7           2.1520     3.3590     5.0160 na         1 0FT       0.588400
     14 C1'          1.6790     4.4860     5.8260 c3         1 0FT       0.149800
     15 O4'          1.3380     5.5970     4.9820 os         1 0FT      -0.369600
     16 C4'          1.6990     6.8270     5.6240 c3         1 0FT       0.162100
     17 C5'          0.4480     7.6730     5.8650 c3         1 0FT       0.210400
     18 O5'         -0.0970     8.0850     4.6100 oh         1 0FT      -0.575800
     19 C3'          2.3620     6.4720     6.9720 c3         1 0FT       0.136100
     20 O3'          3.4840     7.3190     7.2260 oh         1 0FT      -0.566800
     21 C2'          2.8160     5.0050     6.7400 c3         1 0FT       0.119100
     22 O2'          2.8610     4.2790     7.9700 oh         1 0FT      -0.578800
     23 H1           3.1560    -0.0000     1.2000 h4         1 0FT       0.145000
     24 H2           3.0250    -0.5100     3.5160 h1         1 0FT       0.047700
     25 H3           1.4790    -0.5120     4.3760 h1         1 0FT       0.047700
     26 H4           0.6410     1.8320     5.4050 h4         1 0FT       0.177000
     27 H5          -1.6630    -0.0000     1.1830 hn         1 0FT       0.205500
     28 H6           1.8860    -0.8580    -1.8910 hc         1 0FT       0.010700
     29 H7           3.2430    -0.0510    -1.0930 hc         1 0FT       0.010700
     30 H8           1.9620     0.9090    -1.8460 hc         1 0FT       0.010700
     31 H9           0.8230     4.1940     6.4230 h2         1 0FT       0.055700
     32 H10          2.4020     7.3700     5.0040 h1         1 0FT       0.062700
     33 H11          0.7090     8.5460     6.4500 h1         1 0FT      -0.007800
     34 H12         -0.2870     7.0850     6.4020 h1         1 0FT      -0.007800
     35 H13         -0.8020     8.6950     4.7580 ho         1 0FT       0.391000
     36 H14          1.6400     6.5260     7.7790 h1         1 0FT       0.028700
     37 H15          3.4550     7.6210     8.1190 ho         1 0FT       0.398000
     38 H16          3.7690     4.9730     6.2270 h1         1 0FT       0.063700
     39 H17          3.7590     4.1430     8.2230 ho         1 0FT       0.408000
     40 C7           2.0760    -0.0000     3.6310 c3         1 0FT       0.041700
     41 O2          -0.5930    -0.0010     3.3880 o          1 0FT      -0.721500
@<TRIPOS>BOND
     1     1     2 1   
     2     1     7 1   
     3     1     9 2   
     4     2     3 2   
     5     2    10 1   
     6     3     6 1   
     7     3    23 1   
     8     4     5 2   
     9     4    11 1   
    10     4    40 1   
    11     5    13 1   
    12     5    26 1   
    13     6     8 1   
    14     6    40 1   
    15     7     8 1   
    16     7    27 1   
    17     8    41 2   
    18    10    28 1   
    19    10    29 1   
    20    10    30 1   
    21    11    12 2   
    22    12    13 1   
    23    13    14 1   
    24    14    15 1   
    25    14    21 1   
    26    14    31 1   
    27    15    16 1   
    28    16    17 1   
    29    16    19 1   
    30    16    32 1   
    31    17    18 1   
    32    17    33 1   
    33    17    34 1   
    34    18    35 1   
    35    19    20 1   
    36    19    21 1   
    37    19    36 1   
    38    20    37 1   
    39    21    22 1   
    40    21    38 1   
    41    22    39 1   
    42    24    40 1   
    43    25    40 1   
@<TRIPOS>SUBSTRUCTURE
     1 0FT         1 TEMP              0 ****  ****    0 ROOT
