@<TRIPOS>MOLECULE
molecule
   17    17     1     0     0
SMALL
bcc


@<TRIPOS>ATOM
      1 C4           0.0000     0.0000     0.0000 ca         1 0FU       0.616600
      2 N3           1.3290     0.0000     0.0000 nb         1 0FU      -0.794000
      3 C2           2.0090     0.0000     1.1370 ca         1 0FU       0.914900
      4 NAA          3.3940     0.0000     1.0930 nv         1 0FU      -1.053500
      5 N1           1.4010     0.0010     2.3130 nb         1 0FU      -0.754000
      6 C6           0.0730     0.0030     2.3940 ca         1 0FU       0.661200
      7 NAB         -0.5570     0.0040     3.6310 nv         1 0FU      -1.064500
      8 C5          -0.6780     0.0010     1.2160 ca         1 0FU      -0.068000
      9 NAC         -2.0850     0.0080     1.2580 nv         1 0FU      -0.910200
     10 O4          -0.6880     0.0050    -1.1700 oh         1 0FU      -0.617300
     11 H1           3.8920    -0.8610     0.9800 hn         1 0FU       0.440300
     12 H2           3.8980     0.8610     1.1750 hn         1 0FU       0.440300
     13 H3          -0.4930     0.8070     4.2250 hn         1 0FU       0.436800
     14 H4          -1.0600    -0.8060     3.9370 hn         1 0FU       0.436800
     15 H7          -2.6100     0.1540     0.4180 hn         1 0FU       0.437300
     16 H8          -2.5610    -0.1500     2.1240 hn         1 0FU       0.437300
     17 H71         -0.1990     0.4840    -1.8200 ho         1 0FU       0.440000
@<TRIPOS>BOND
     1     1     8 ar
     2     2     1 ar
     3     3     5 ar
     4     3     2 ar
     5     4     3 1
     6     5     6 ar
     7     6     7 1
     8     6     8 ar
     9     8     9 1
    10     1    10 1
    11     4    11 1
    12     4    12 1
    13     7    13 1
    14     7    14 1
    15     9    15 1
    16     9    16 1
    17    10    17 1
@<TRIPOS>SUBSTRUCTURE
     1 0FU         1 TEMP              0 ****  ****    0 ROOT
