@<TRIPOS>MOLECULE
0FU
   17    17     1     0     0
SMALL
bcc


@<TRIPOS>ATOM
      1 C4           0.0200     0.0900     0.0450 ca         1 0FU       0.677600
      2 N3           1.3670     0.0170    -0.0690 nb         1 0FU      -0.853000
      3 C2           2.0580    -0.0810     1.1310 ca         1 0FU       0.927900
      4 NAA          3.4570    -0.0380     1.0690 nv         1 0FU      -0.927500
      5 N1           1.4830    -0.1550     2.3830 nb         1 0FU      -0.839000
      6 C6           0.1150    -0.0940     2.4540 ca         1 0FU       0.745200
      7 NAB         -0.4810    -0.2560     3.6920 nv         1 0FU      -0.935500
      8 C5          -0.7030     0.0600     1.2690 ca         1 0FU      -0.291000
      9 NAC         -2.1060     0.1950     1.3670 nv         1 0FU      -0.761200
     10 O4          -0.7310     0.2120    -1.1010 oh         1 0FU      -0.626300
     11 H1           3.9450    -0.3600     1.8730 hn         1 0FU       0.426300
     12 H2           3.8680    -0.2490     0.1900 hn         1 0FU       0.426300
     13 H3          -1.4210     0.0550     3.7800 hn         1 0FU       0.431800
     14 H4           0.0910    -0.1830     4.5010 hn         1 0FU       0.431800
     15 H7          -2.5480    -0.6850     1.1680 hn         1 0FU       0.359800
     16 H8          -2.4290     0.8730     0.7010 hn         1 0FU       0.359800
     17 H71         -0.1410     0.2580    -1.8730 ho         1 0FU       0.447000
@<TRIPOS>BOND
     1     1     2 ar  
     2     1     8 ar  
     3     1    10 1   
     4     2     3 ar  
     5     3     4 1   
     6     3     5 ar  
     7     4    11 1   
     8     4    12 1   
     9     5     6 ar  
    10     6     7 1   
    11     6     8 ar  
    12     7    13 1   
    13     7    14 1   
    14     8     9 1   
    15     9    15 1   
    16     9    16 1   
    17    10    17 1   
@<TRIPOS>SUBSTRUCTURE
     1 0FU         1 TEMP              0 ****  ****    0 ROOT
