@<TRIPOS>MOLECULE
molecule
   36    35     1     0     0
SMALL
bcc


@<TRIPOS>ATOM
      1 C1           0.0000     0.0000     0.0000 c3         1 0FV       0.243600
      2 O1           1.4300     0.0000     0.0000 os         1 0FV      -0.584200
      3 C2          -0.5020     0.0000     1.4210 c2         1 0FV       0.161300
      4 F2          -0.2510    -1.0560     2.2250 f          1 0FV      -0.186500
      5 C3          -1.1830     1.0260     1.8770 c2         1 0FV      -0.258400
      6 C4          -1.3450     2.2600     1.0270 c3         1 0FV      -0.025900
      7 C5          -1.8000     0.9700     3.2500 c3         1 0FV      -0.048200
      8 C6          -0.8510     1.6150     4.2630 c3         1 0FV      -0.075200
      9 C7          -1.4690     1.5600     5.6360 c2         1 0FV      -0.565200
     10 C8          -0.8550     0.9270     6.6060 c2         1 0FV      -0.043400
     11 C9           0.3970     0.1410     6.3170 c3         1 0FV      -0.076400
     12 C10         -1.4020     0.9870     8.0090 c3         1 0FV      -0.076400
     13 PA           2.3060    -0.0000    -1.3510 p5         1 0FV       1.421800
     14 O1A          1.9030    -1.1430    -2.2000 o          1 0FV      -0.858000
     15 O2A          2.0600     1.3760    -2.1500 o          1 0FV      -0.858000
     16 O3A          3.8670    -0.1330    -0.9780 os         1 0FV      -0.710800
     17 PB           5.1910    -0.4910    -1.8200 p5         1 0FV       1.311900
     18 O1B          6.4950    -0.0830    -0.9690 o          1 0FV      -0.906500
     19 O2B          5.2230    -2.0720    -2.1240 o          1 0FV      -0.906500
     20 O3B          5.1810     0.2570    -3.0960 o          1 0FV      -0.906500
     21 H1          -0.3610    -0.8850    -0.5110 h1         1 0FV       0.040200
     22 H2          -0.3610     0.8840    -0.5110 h1         1 0FV       0.040200
     23 H3          -0.3680     2.6430     0.7560 hc         1 0FV       0.039700
     24 H4          -1.8870     3.0140     1.5840 hc         1 0FV       0.039700
     25 H5          -1.8960     2.0090     0.1280 hc         1 0FV       0.039700
     26 H6          -1.9750    -0.0630     3.5250 hc         1 0FV       0.037700
     27 H7          -2.7410     1.5070     3.2440 hc         1 0FV       0.037700
     28 H8           0.0900     1.0780     4.2680 hc         1 0FV       0.065700
     29 H9          -0.6760     2.6480     3.9870 hc         1 0FV       0.065700
     30 H10         -1.5850     0.7480     4.9270 ha         1 0FV       0.328000
     31 H11          0.1840    -0.6190     5.5760 hc         1 0FV       0.035533
     32 H12          1.1640     0.8080     5.9410 hc         1 0FV       0.035533
     33 H13          0.7450    -0.3310     7.2280 hc         1 0FV       0.035533
     34 H14         -2.1720     1.7470     8.0640 hc         1 0FV       0.035533
     35 H15         -1.8250     0.0250     8.2730 hc         1 0FV       0.035533
     36 H16         -0.6030     1.2310     8.6980 hc         1 0FV       0.035533
@<TRIPOS>BOND
     1    12    10 1   
     2    10    11 1   
     3    10     9 2   
     4     8     7 1   
     5     8     9 1   
     6     7     5 1   
     7     5     6 1   
     8     5     3 2   
     9     4     3 1   
    10    14    13 1   
    11     3     1 1   
    12    13     2 1   
    13    13    15 1   
    14    13    16 1   
    15     2     1 1   
    16    16    17 1   
    17    20    17 1   
    18    17    19 1   
    19    17    18 1   
    20     1    21 1   
    21     1    22 1   
    22     6    23 1   
    23     6    24 1   
    24     6    25 1   
    25     7    26 1   
    26     7    27 1   
    27     8    28 1   
    28     8    29 1   
    29     9    30 1   
    30    11    31 1   
    31    11    32 1   
    32    11    33 1   
    33    12    34 1   
    34    12    35 1   
    35    12    36 1   
@<TRIPOS>SUBSTRUCTURE
     1 0FV         1 TEMP              0 ****  ****    0 ROOT
