@<TRIPOS>MOLECULE
0FV
   36    35     1     0     0
SMALL
bcc


@<TRIPOS>ATOM
      1 C1           0.3800     0.8330     0.1230 c3         1 0FV       0.183600
      2 O1           1.6110     0.2250     0.1050 os         1 0FV      -0.580200
      3 C2          -0.3290     0.6340     1.4650 c2         1 0FV       0.208300
      4 F2          -0.7870     1.7720     2.0420 f          1 0FV      -0.196500
      5 C3          -0.5930    -0.5660     2.0590 c2         1 0FV      -0.312400
      6 C4          -0.1190    -1.8380     1.4740 c3         1 0FV      -0.019900
      7 C5          -1.3260    -0.6760     3.3470 c3         1 0FV      -0.002200
      8 C6          -2.7480    -1.1750     3.1450 c3         1 0FV      -0.065200
      9 C7          -3.4790    -1.3470     4.4200 c2         1 0FV      -0.109200
     10 C8          -4.6700    -1.9580     4.5320 c2         1 0FV      -0.201400
     11 C9          -5.3690    -2.5380     3.3600 c3         1 0FV      -0.038400
     12 C10         -5.3640    -2.0970     5.8340 c3         1 0FV      -0.038400
     13 PA           2.9680     1.2240    -0.1650 p5         1 0FV       1.567800
     14 O1A          3.2830     1.7520     1.1910 o          1 0FV      -0.917000
     15 O2A          3.9430     0.2720    -0.7680 o          1 0FV      -0.917000
     16 O3A          2.3650     2.2770    -1.1520 os         1 0FV      -0.818800
     17 PB           1.5050     3.4590    -2.1480 p5         1 0FV       1.457900
     18 O1B          1.4630     2.8640    -3.5280 o          1 0FV      -0.956833
     19 O2B          0.1740     3.4680    -1.4350 o          1 0FV      -0.956833
     20 O3B          2.3060     4.7260    -2.0430 o          1 0FV      -0.956833
     21 H1           0.4400     1.9440    -0.1570 h1         1 0FV       0.085200
     22 H2          -0.3020     0.3180    -0.6210 h1         1 0FV       0.085200
     23 H3          -0.9780    -2.4150     1.0420 hc         1 0FV       0.026033
     24 H4           0.6380    -1.6460     0.6670 hc         1 0FV       0.026033
     25 H5           0.3570    -2.4780     2.2600 hc         1 0FV       0.026033
     26 H6          -0.7860    -1.3870     4.0300 hc         1 0FV       0.022700
     27 H7          -1.3590     0.3210     3.8630 hc         1 0FV       0.022700
     28 H8          -2.7240    -2.1500     2.5850 hc         1 0FV       0.056200
     29 H9          -3.3050    -0.4450     2.4950 hc         1 0FV       0.056200
     30 H10         -2.9860    -0.9260     5.3140 ha         1 0FV       0.113000
     31 H11         -6.4280    -2.7970     3.6040 hc         1 0FV       0.024867
     32 H12         -4.8460    -3.4680     3.0200 hc         1 0FV       0.024867
     33 H13         -5.3660    -1.8140     2.5060 hc         1 0FV       0.024867
     34 H14         -4.7550    -1.6770     6.6710 hc         1 0FV       0.024867
     35 H15         -5.5680    -3.1750     6.0530 hc         1 0FV       0.024867
     36 H16         -6.3450    -1.5590     5.8100 hc         1 0FV       0.024867
@<TRIPOS>BOND
     1     1     2 1   
     2     1     3 1   
     3     1    21 1   
     4     1    22 1   
     5     2    13 1   
     6     3     4 1   
     7     3     5 2   
     8     5     6 1   
     9     5     7 1   
    10     6    23 1   
    11     6    24 1   
    12     6    25 1   
    13     7     8 1   
    14     7    26 1   
    15     7    27 1   
    16     8     9 1   
    17     8    28 1   
    18     8    29 1   
    19     9    10 2   
    20     9    30 1   
    21    10    11 1   
    22    10    12 1   
    23    11    31 1   
    24    11    32 1   
    25    11    33 1   
    26    12    34 1   
    27    12    35 1   
    28    12    36 1   
    29    13    14 1   
    30    13    15 1   
    31    13    16 1   
    32    16    17 1   
    33    17    18 1   
    34    17    19 1   
    35    17    20 1   
@<TRIPOS>SUBSTRUCTURE
     1 0FV         1 TEMP              0 ****  ****    0 ROOT
