@<TRIPOS>MOLECULE
0FV
   36    35     1     0     0
SMALL
bcc


@<TRIPOS>ATOM
      1 C1           0.0000     0.0000     0.0000 c3         1 0FV       0.313600
      2 O1           1.4300     0.0000     0.0000 os         1 0FV      -0.481200
      3 C2          -0.5020     0.0000     1.4210 c2         1 0FV       0.137300
      4 F2          -0.2510    -1.0560     2.2250 f          1 0FV      -0.177500
      5 C3          -1.1830     1.0260     1.8770 c2         1 0FV      -0.309400
      6 C4          -1.3450     2.2600     1.0270 c3         1 0FV       0.090100
      7 C5          -1.8000     0.9700     3.2500 c3         1 0FV       0.059800
      8 C6          -0.8510     1.6150     4.2630 c3         1 0FV       0.003800
      9 C7          -1.4690     1.5600     5.6360 c2         1 0FV      -0.180200
     10 C8          -0.8550     0.9270     6.6060 c2         1 0FV      -0.212400
     11 C9           0.3970     0.1410     6.3170 c3         1 0FV       0.072100
     12 C10         -1.4020     0.9870     8.0090 c3         1 0FV       0.072100
     13 PA           2.3060    -0.0000    -1.3510 p5         1 0FV       0.887800
     14 O1A          1.9030    -1.1430    -2.2000 o          1 0FV      -0.703500
     15 O2A          2.0600     1.3760    -2.1500 o          1 0FV      -0.703500
     16 O3A          3.8670    -0.1330    -0.9780 os         1 0FV      -0.448800
     17 PB           5.1910    -0.4910    -1.8200 p5         1 0FV       0.758900
     18 O1B          6.4950    -0.0830    -0.9690 o          1 0FV      -0.764167
     19 O2B          5.2230    -2.0720    -2.1240 o          1 0FV      -0.764167
     20 O3B          5.1810     0.2570    -3.0960 o          1 0FV      -0.764167
     21 H1          -0.3610    -0.8850    -0.5110 h1         1 0FV      -0.009800
     22 H2          -0.3610     0.8850    -0.5110 h1         1 0FV      -0.009800
     23 H3          -1.9000     3.0090     1.5790 hc         1 0FV       0.001367
     24 H4          -1.8830     2.0060     0.1210 hc         1 0FV       0.001367
     25 H5          -0.3680     2.6520     0.7690 hc         1 0FV       0.001367
     26 H6          -2.7410     1.5070     3.2440 hc         1 0FV      -0.003300
     27 H7          -1.9750    -0.0630     3.5250 hc         1 0FV      -0.003300
     28 H8          -0.6760     2.6480     3.9870 hc         1 0FV       0.033200
     29 H9           0.0900     1.0780     4.2680 hc         1 0FV       0.033200
     30 H10         -2.4090     2.0630     5.8270 ha         1 0FV       0.082000
     31 H11          1.1650     0.8080     5.9440 hc         1 0FV      -0.002633
     32 H12          0.7430    -0.3340     7.2280 hc         1 0FV      -0.002633
     33 H13          0.1850    -0.6170     5.5730 hc         1 0FV      -0.002633
     34 H14         -1.9900     0.0980     8.2050 hc         1 0FV      -0.002633
     35 H15         -2.0280     1.8640     8.1150 hc         1 0FV      -0.002633
     36 H16         -0.5820     1.0410     8.7140 hc         1 0FV      -0.002633
@<TRIPOS>BOND
     1     1     2 1   
     2     1     3 1   
     3     1    21 1   
     4     1    22 1   
     5     2    13 1   
     6     3     4 1   
     7     3     5 2   
     8     5     6 1   
     9     5     7 1   
    10     6    23 1   
    11     6    24 1   
    12     6    25 1   
    13     7     8 1   
    14     7    26 1   
    15     7    27 1   
    16     8     9 1   
    17     8    28 1   
    18     8    29 1   
    19     9    10 2   
    20     9    30 1   
    21    10    11 1   
    22    10    12 1   
    23    11    31 1   
    24    11    32 1   
    25    11    33 1   
    26    12    34 1   
    27    12    35 1   
    28    12    36 1   
    29    13    14 1   
    30    13    15 1   
    31    13    16 1   
    32    16    17 1   
    33    17    18 1   
    34    17    19 1   
    35    17    20 1   
@<TRIPOS>SUBSTRUCTURE
     1 0FV         1 TEMP              0 ****  ****    0 ROOT
