@<TRIPOS>MOLECULE
molecule
   51    54     1     0     0
SMALL
bcc


@<TRIPOS>ATOM
      1 OAA          0.0000     0.0000     0.0000 o          1 0FW      -0.839800
      2 OAB          0.5380     4.1200     0.7340 o          1 0FW      -0.829300
      3 OAC          7.8380     2.6440     1.0970 o          1 0FW       0.858900
      4 OAD          1.8890    -0.6320    -0.9800 o          1 0FW      -0.839800
      5 OAE          0.0520     2.2180    -0.3030 o          1 0FW      -0.829300
      6 CAF         10.8470    -0.8140    -6.8450 ca         1 0FW      -0.135000
      7 CAG          9.4890    -0.5490    -6.8420 ca         1 0FW      -0.133000
      8 CAH         11.6060    -0.5780    -5.7130 ca         1 0FW      -0.133000
      9 CAI          7.3450     4.0330     4.5670 ca         1 0FW      -0.123000
     10 CAJ          7.9650     3.6390     3.3960 ca         1 0FW      -0.174000
     11 CAK          6.0280     3.6890     4.8020 ca         1 0FW      -0.176000
     12 CAL          8.8850    -0.0420    -5.7100 ca         1 0FW      -0.113500
     13 CAM         11.0110    -0.0770    -4.5720 ca         1 0FW      -0.113500
     14 CAN          3.5810     0.6490     2.8410 ca         1 0FW      -0.201000
     15 CAO          7.0340     1.5200    -2.2090 ca         1 0FW      -0.066500
     16 CAP          9.1630     1.4630    -1.0610 ca         1 0FW      -0.066500
     17 CAQ          7.6340     1.0200    -3.3430 ca         1 0FW      -0.144000
     18 CAR          9.7620     0.9690    -2.1980 ca         1 0FW      -0.144000
     19 CAS          2.8910     0.0000     1.8370 ca         1 0FW      -0.137000
     20 CAT          5.9380     2.5610     2.6840 ca         1 0FW      -0.088000
     21 CAU          2.4050     2.6950     2.3540 ca         1 0FW      -0.105000
     22 CAX          1.2150     0.0000     0.0000 c          1 0FW       0.899200
     23 CAZ          7.1540     2.2900     0.1550 c          1 0FW      -0.435300
     24 CBA          7.2630     2.9020     2.4510 ca         1 0FW      -0.864400
     25 CBB          5.3210     2.9530     3.8610 ca         1 0FW       0.155100
     26 CBC          3.3410     1.9930     3.1030 ca         1 0FW       0.012100
     27 CBD          7.7950     1.7480    -1.0600 ca         1 0FW      -0.161600
     28 CBE          9.6460     0.2020    -4.5670 cp         1 0FW      -0.031000
     29 CBF          9.0010     0.7420    -3.3450 cp         1 0FW       0.008000
     30 CBG          1.9540     0.6930     1.0740 ca         1 0FW      -0.047600
     31 CBH          1.7120     2.0560     1.3340 ca         1 0FW      -0.084600
     32 HAF         11.3200    -1.2110    -7.7350 ha         1 0FW       0.119000
     33 HAG          8.8970    -0.7450    -7.7280 ha         1 0FW       0.124500
     34 HAH         12.6690    -0.7860    -5.7200 ha         1 0FW       0.124500
     35 HAI          7.8890     4.6180     5.2980 ha         1 0FW       0.094000
     36 HAJ          8.9980     3.9100     3.2130 ha         1 0FW       0.073000
     37 HAK          5.5480     3.9840     5.7270 ha         1 0FW       0.118000
     38 HAL          7.8140     0.1200    -5.6940 ha         1 0FW       0.139500
     39 HAM         11.6070     0.1070    -3.6860 ha         1 0FW       0.139500
     40 HAN          4.0340    -0.0820     3.5000 ha         1 0FW       0.098000
     41 HAO          5.9770     1.7580    -2.2160 ha         1 0FW       0.148500
     42 HAP          9.7560     1.6480    -0.1740 ha         1 0FW       0.148500
     43 HAQ          7.0550     0.8890    -4.2490 ha         1 0FW       0.136500
     44 HAR         10.7840     0.7420    -1.9200 ha         1 0FW       0.136500
     45 HAS          3.1460    -1.0460     1.7210 ha         1 0FW       0.113000
     46 HAT          5.3890     1.9870     1.9470 ha         1 0FW       0.194000
     47 HAU          2.2000     3.7340     2.5810 ha         1 0FW       0.148000
     48 HNAV         8.0480     1.7660     1.9150 hn         1 0FW      -0.300500
     49 CAY          0.7130     2.7990     0.5340 c          1 0FW       0.873200
     50 OAW          4.0240     2.6210     4.0920 os         1 0FW      -0.254200
     51 NAV          7.8890     2.5100     1.2640 ns         1 0FW       0.710900
@<TRIPOS>BOND
     1     1    22 1
     2    49     2 1
     3     3    23 2
     4    22     4 1
     5     5    49 1
     6     8     6 ar
     7     6     7 ar
     8     6    32 1
     9     7    12 ar
    10     7    33 1
    11     8    13 ar
    12     8    34 1
    13    11     9 ar
    14    10     9 ar
    15     9    35 1
    16    24    10 ar
    17    10    36 1
    18    25    11 ar
    19    11    37 1
    20    28    12 ar
    21    12    38 1
    22    13    28 ar
    23    13    39 1
    24    26    14 ar
    25    14    19 ar
    26    14    40 1
    27    17    15 ar
    28    15    27 ar
    29    15    41 1
    30    18    16 ar
    31    16    27 ar
    32    16    42 1
    33    29    17 ar
    34    17    43 1
    35    29    18 ar
    36    18    44 1
    37    19    30 ar
    38    19    45 1
    39    20    25 ar
    40    20    24 ar
    41    20    46 1
    42    26    21 ar
    43    21    31 ar
    44    21    47 1
    45    23    51 1
    46    51    24 1
    47    51    48 1
    48    50    26 1
    49    50    25 1
    50    30    22 1
    51    31    49 1
    52    27    23 1
    53    28    29 1
    54    31    30 ar
@<TRIPOS>SUBSTRUCTURE
     1 0FW         1 TEMP              0 ****  ****    0 ROOT
