@<TRIPOS>MOLECULE
molecule
   51    54     1     0     0
SMALL
bcc


@<TRIPOS>ATOM
      1 OAA          0.0000     0.0000     0.0000 o          1 0FW      -0.845800
      2 OAB          5.3630     0.7570     0.7000 o          1 0FW      -0.843300
      3 OAC          2.5090     1.6600    10.7650 o          1 0FW      -0.601100
      4 OAD          1.9670    -0.0080    -1.0370 o          1 0FW      -0.845800
      5 OAE          4.2820    -0.8120    -0.4100 o          1 0FW      -0.843300
      6 CAF          5.5580     0.9760    18.4830 ca         1 0FW      -0.029000
      7 CAG          6.3120     0.0860    17.7140 ca         1 0FW      -0.134000
      8 CAH          4.9820     2.0880    17.8850 ca         1 0FW      -0.134000
      9 CAI          1.7880     3.1570     6.6460 ca         1 0FW      -0.100000
     10 CAJ          1.8590     2.9440     8.0250 ca         1 0FW      -0.198000
     11 CAK          2.2100     2.1820     5.7390 ca         1 0FW      -0.180000
     12 CAL          6.4860     0.2840    16.3420 ca         1 0FW      -0.130000
     13 CAM          5.1600     2.2860    16.5260 ca         1 0FW      -0.130000
     14 CAN          1.4010    -0.0100     3.7670 ca         1 0FW      -0.172000
     15 CAO          6.0770     0.3330    11.7600 ca         1 0FW      -0.088000
     16 CAP          3.7900     0.4900    12.5090 ca         1 0FW      -0.088000
     17 CAQ          6.4850     0.2930    13.0670 ca         1 0FW      -0.154000
     18 CAR          4.2060     0.4660    13.8540 ca         1 0FW      -0.154000
     19 CAS          0.9870     0.0000     2.4440 ca         1 0FW      -0.130000
     20 CAT          2.7730     0.7580     7.5880 ca         1 0FW      -0.188000
     21 CAU          3.7030    -0.0260     3.0100 ca         1 0FW      -0.137000
     22 CAX          1.2570     0.0000     0.0000 c          1 0FW       0.925200
     23 CAZ          3.3140     0.7790    10.4030 c          1 0FW       0.181700
     24 CBA          2.3470     1.7300     8.5070 ca         1 0FW      -0.125400
     25 CBB          2.7050     0.9650     6.2020 ca         1 0FW       0.156100
     26 CBC          2.7590    -0.0130     4.0510 ca         1 0FW       0.007100
     27 CBD          4.7380     0.4150    11.4700 ca         1 0FW      -0.049600
     28 CBE          5.9230     1.4030    15.7480 cp         1 0FW      -0.139000
     29 CBF          5.5770     0.3460    14.1150 cp         1 0FW       0.074000
     30 CBG          1.9070    -0.0050     1.3930 ca         1 0FW      -0.072600
     31 CBH          3.2960    -0.0150     1.6650 ca         1 0FW      -0.073600
     32 HAF          5.3730     0.7660    19.5290 ha         1 0FW       0.246000
     33 HAG          6.7700    -0.7730    18.1900 ha         1 0FW       0.180000
     34 HAH          4.4210     2.7590    18.5250 ha         1 0FW       0.180000
     35 HAI          1.4070     4.1010     6.2730 ha         1 0FW       0.123000
     36 HAJ          1.4180     3.6600     8.7070 ha         1 0FW       0.107000
     37 HAK          2.1460     2.3700     4.6740 ha         1 0FW       0.183000
     38 HAL          7.2010    -0.3180    15.7940 ha         1 0FW       0.102000
     39 HAM          4.8170     3.3070    16.4030 ha         1 0FW       0.102000
     40 HAN          0.6730    -0.0030     4.5690 ha         1 0FW       0.104000
     41 HAO          6.7970     0.1950    10.9630 ha         1 0FW       0.127000
     42 HAP          2.7360     0.5690    12.2710 ha         1 0FW       0.127000
     43 HAQ          7.5430     0.2140    13.2870 ha         1 0FW       0.148500
     44 HAR          3.4850     0.2720    14.6400 ha         1 0FW       0.148500
     45 HAS         -0.0730     0.0100     2.2200 ha         1 0FW       0.122000
     46 HAT          3.1650    -0.1810     7.9610 ha         1 0FW       0.132000
     47 HAU          4.7600    -0.0290     3.2480 ha         1 0FW       0.131000
     48 HNAV         2.2590     1.5070     8.8470 hn         1 0FW       0.191500
     49 CAY          4.3900    -0.0190     0.5600 c          1 0FW       0.923200
     50 OAW          3.1490    -0.0230     5.3520 os         1 0FW      -0.259200
     51 NAV          2.4050     1.5650     9.8360 ns         1 0FW       0.124900
@<TRIPOS>BOND
     1     1    22 1   
     2    49     2 1   
     3     3    23 2   
     4    22     4 1   
     5     5    49 1   
     6     8     6 ar  
     7     6     7 ar  
     8     6    32 1   
     9     7    12 ar  
    10     7    33 1   
    11     8    13 ar  
    12     8    34 1   
    13    11     9 ar  
    14    10     9 ar  
    15     9    35 1   
    16    24    10 ar  
    17    10    36 1   
    18    25    11 ar  
    19    11    37 1   
    20    28    12 ar  
    21    12    38 1   
    22    13    28 ar  
    23    13    39 1   
    24    26    14 ar  
    25    14    19 ar  
    26    14    40 1   
    27    17    15 ar  
    28    15    27 ar  
    29    15    41 1   
    30    18    16 ar  
    31    16    27 ar  
    32    16    42 1   
    33    29    17 ar  
    34    17    43 1   
    35    29    18 ar  
    36    18    44 1   
    37    19    30 ar  
    38    19    45 1   
    39    20    25 ar  
    40    20    24 ar  
    41    20    46 1   
    42    26    21 ar  
    43    21    31 ar  
    44    21    47 1   
    45    23    51 1   
    46    51    24 1   
    47    51    48 1   
    48    50    26 1   
    49    50    25 1   
    50    30    22 1   
    51    31    49 1   
    52    27    23 1   
    53    28    29 1   
    54    31    30 ar  
@<TRIPOS>SUBSTRUCTURE
     1 0FW         1 TEMP              0 ****  ****    0 ROOT
