@<TRIPOS>MOLECULE
0FY
   72    77     1     0     0
SMALL
bcc


@<TRIPOS>ATOM
      1 C34          0.5770    -0.9650     2.1670 ca         1 0FY      -0.190000
      2 C14        -10.4410     5.3590    -6.9160 cc         1 0FY      -0.294300
      3 C28         -4.4830    -0.1760    -2.0330 cc         1 0FY       0.375200
      4 C25         -5.3570     0.8720    -0.2180 cd         1 0FY      -0.042300
      5 C35          1.8790    -1.4080     2.3730 ca         1 0FY       0.012700
      6 C37          1.5100    -3.3390     1.0560 ca         1 0FY      -0.027300
      7 C8          -7.8240     0.7620    -2.7310 cd         1 0FY      -0.036100
      8 C10         -5.5310     0.7420    -1.6130 cc         1 0FY      -0.296100
      9 C33         -0.3340    -1.7220     1.3810 ca         1 0FY       0.176600
     10 C38          0.1860    -2.9470     0.8100 ca         1 0FY       0.050900
     11 C9          -6.5580     1.3010    -2.4280 cc         1 0FY      -0.001300
     12 C15        -10.4560     6.6540    -7.5410 cc         1 0FY       0.332600
     13 C13         -9.3280     5.2530    -6.0650 cd         1 0FY       0.077500
     14 C4          -7.6780     2.7310    -3.8210 ca         1 0FY      -0.160800
     15 C6          -5.4920     3.4970    -3.1820 ca         1 0FY      -0.223600
     16 C3          -7.8530     3.9460    -4.6200 ca         1 0FY       0.698200
     17 C1          -5.7150     4.6530    -3.9510 ca         1 0FY       0.485600
     18 C30         -2.2950    -0.2170     1.6290 c          1 0FY       0.670100
     19 C21        -12.2890    10.7510    -8.1940 c3         1 0FY      -0.105400
     20 C22        -12.9800    10.9630    -9.5220 c3         1 0FY      -0.097400
     21 C20        -12.2290     9.2740    -7.8240 c3         1 0FY       0.116800
     22 C24        -12.3170     8.6390   -10.2000 c3         1 0FY       0.112800
     23 C23        -12.3860    10.1080   -10.6290 c3         1 0FY      -0.085700
     24 C11         -4.6410     5.6890    -4.0060 c3         1 0FY      -0.165400
     25 C40        -11.0400    10.6200   -11.0900 c3         1 0FY      -0.115100
     26 C29         -3.8250    -0.1750     1.4730 c3         1 0FY      -0.019700
     27 N27         -3.7550    -0.5640    -0.9640 nd         1 0FY      -0.516800
     28 N16         -9.4410     7.4470    -7.1860 nd         1 0FY      -0.604100
     29 N2          -6.8690     4.8690    -4.6570 nb         1 0FY      -0.685000
     30 N26         -4.2710     0.0630     0.1170 na         1 0FY       0.086400
     31 N5          -6.4760     2.5400    -3.1160 na         1 0FY       0.127700
     32 N36          2.3340    -2.5740     1.8270 na         1 0FY      -0.100100
     33 N7          -8.4980     1.6370    -3.5790 na         1 0FY      -0.125400
     34 N32         -1.6490    -1.3760     1.1630 ns         1 0FY      -0.439100
     35 N12         -9.0700     4.1440    -5.2660 nu         1 0FY      -0.674300
     36 N19        -11.5780     8.4570    -8.9030 nx         1 0FY      -0.681400
     37 O31         -1.6960     0.7060     2.1870 o          1 0FY      -0.504100
     38 F39         -0.5950    -3.7330     0.0400 f          1 0FY      -0.083900
     39 S17         -8.4620     6.7180    -6.1440 ss         1 0FY       0.465200
     40 H34          0.2710    -0.0080     2.6360 ha         1 0FY       0.231000
     41 H14        -11.1980     4.5950    -7.0940 ha         1 0FY       0.185000
     42 H28         -4.2730    -0.5380    -3.0440 h4         1 0FY       0.073100
     43 H25         -5.9080     1.4570     0.5230 h4         1 0FY       0.207000
     44 H35          2.5960    -0.8240     2.9930 h4         1 0FY       0.226000
     45 H37          1.9160    -4.2820     0.6270 h4         1 0FY       0.234000
     46 H8          -8.2670    -0.1850    -2.3930 h4         1 0FY       0.243000
     47 H6          -4.5620     3.3060    -2.6180 h4         1 0FY       0.220000
     48 H211       -11.2550    11.1880    -8.2170 hc         1 0FY       0.089700
     49 H212       -12.8550    11.2800    -7.3800 hc         1 0FY       0.089700
     50 H222       -12.9020    12.0460    -9.8110 hc         1 0FY       0.083700
     51 H221       -14.0730    10.7270    -9.4190 hc         1 0FY       0.083700
     52 H201       -13.2720     8.8740    -7.6720 hx         1 0FY       0.099700
     53 H202       -11.6370     9.1330    -6.8760 hx         1 0FY       0.099700
     54 H242       -13.3590     8.2340   -10.0590 hx         1 0FY       0.099700
     55 H241       -11.7870     8.0360   -10.9910 hx         1 0FY       0.099700
     56 H23        -13.0910    10.1340   -11.5140 hc         1 0FY       0.109700
     57 H111        -3.7570     5.3670    -3.4010 hc         1 0FY       0.090367
     58 H113        -4.3120     5.8550    -5.0640 hc         1 0FY       0.090367
     59 H112        -5.0200     6.6630    -3.6010 hc         1 0FY       0.090367
     60 H402       -10.6060     9.9490   -11.8700 hc         1 0FY       0.057367
     61 H403       -10.3170    10.7040   -10.2430 hc         1 0FY       0.057367
     62 H401       -11.1590    11.6390   -11.5390 hc         1 0FY       0.057367
     63 H181       -11.3100     6.4200    -9.4840 hx         1 0FY       0.115700
     64 H182       -12.5220     6.7020    -8.1320 hx         1 0FY       0.115700
     65 H292        -4.1940     0.6730     2.1230 h1         1 0FY       0.117700
     66 H291        -4.2660    -1.1450     1.8500 h1         1 0FY       0.117700
     67 H32         -2.1850    -2.0030     0.5900 hn         1 0FY       0.369500
     68 H12         -9.6210     3.3340    -5.4630 hn         1 0FY       0.457800
     69 H36          3.2810    -2.8780     1.9940 hn         1 0FY       0.358700
     70 H7          -9.4240     1.5220    -3.9220 hn         1 0FY       0.356700
     71 H19        -10.6220     8.8210    -9.0390 hn         1 0FY       0.466800
     72 C18        -11.5140     7.0100    -8.5390 c3         1 0FY       0.093500
@<TRIPOS>BOND
     1     1     5 ar  
     2     1     9 ar  
     3     1    40 1   
     4     2    12 1   
     5     2    13 2   
     6     2    41 1   
     7     3     8 1   
     8     3    27 2   
     9     3    42 1   
    10     4     8 2   
    11     4    30 1   
    12     4    43 1   
    13     5    32 2   
    14     5    44 1   
    15     6    10 ar  
    16     6    32 1   
    17     6    45 1   
    18     7    11 2   
    19     7    33 1   
    20     7    46 1   
    21     8    11 1   
    22     9    10 ar  
    23     9    34 1   
    24    10    38 1   
    25    11    31 1   
    26    12    28 2   
    27    12    72 1   
    28    13    35 1   
    29    13    39 1   
    30    14    16 ar  
    31    14    31 2   
    32    14    33 1   
    33    15    17 ar  
    34    15    31 1   
    35    15    47 1   
    36    16    29 ar  
    37    16    35 1   
    38    17    24 1   
    39    17    29 ar  
    40    18    26 1   
    41    18    34 1   
    42    18    37 2   
    43    19    20 1   
    44    19    21 1   
    45    19    48 1   
    46    19    49 1   
    47    20    23 1   
    48    20    50 1   
    49    20    51 1   
    50    21    36 1   
    51    21    52 1   
    52    21    53 1   
    53    22    23 1   
    54    22    36 1   
    55    22    54 1   
    56    22    55 1   
    57    23    25 1   
    58    23    56 1   
    59    24    57 1   
    60    24    58 1   
    61    24    59 1   
    62    25    60 1   
    63    25    61 1   
    64    25    62 1   
    65    26    30 1   
    66    26    65 1   
    67    26    66 1   
    68    27    30 1   
    69    28    39 1   
    70    32    69 1   
    71    33    70 1   
    72    34    67 1   
    73    35    68 1   
    74    36    71 1   
    75    36    72 1   
    76    63    72 1   
    77    64    72 1   
@<TRIPOS>SUBSTRUCTURE
     1 0FY         1 TEMP              0 ****  ****    0 ROOT
