@<TRIPOS>MOLECULE
0FY
   72    77     1     0     0
SMALL
bcc


@<TRIPOS>ATOM
      1 C34          0.0000     0.0000     0.0000 ca         1 0FY      -0.063000
      2 C14        -10.6450    -7.4740    -7.2070 cc         1 0FY      -0.308300
      3 C28         -5.1210    -1.3310    -3.1670 cc         1 0FY       0.416200
      4 C25         -5.7500    -1.9130    -1.0980 cd         1 0FY      -0.187300
      5 C35          1.3800     0.0000     0.0000 ca         1 0FY      -0.232300
      6 C37          1.4530    -0.0120     2.3060 ca         1 0FY      -0.258300
      7 C8          -7.7940    -3.9390    -2.2600 cd         1 0FY      -0.272100
      8 C10         -5.9620    -2.1800    -2.4200 cc         1 0FY      -0.301100
      9 C33         -0.6780    -0.0000     1.2170 ca         1 0FY      -0.043400
     10 C38          0.0740    -0.0070     2.3920 ca         1 0FY       0.128900
     11 C9          -6.9060    -3.1800    -2.9700 cc         1 0FY      -0.159300
     12 C15        -10.7780    -7.7920    -8.5400 cc         1 0FY       0.309600
     13 C13         -9.7140    -6.5170    -6.9440 cd         1 0FY       0.054500
     14 C4          -8.0370    -4.4810    -4.3430 ca         1 0FY      -0.612800
     15 C6          -6.4570    -3.1060    -5.4470 ca         1 0FY      -0.470600
     16 C3          -8.3920    -5.0160    -5.6060 ca         1 0FY       0.522200
     17 C1          -6.8310    -3.6430    -6.6250 ca         1 0FY       0.503600
     18 C30         -2.7820    -0.4730     0.2160 c          1 0FY       0.556100
     19 C21        -14.8870    -6.7680    -8.6710 c3         1 0FY      -0.041400
     20 C22        -15.8810    -7.7490    -9.3000 c3         1 0FY      -0.033400
     21 C20        -13.6310    -7.5270    -8.2410 c3         1 0FY      -0.028200
     22 C24        -13.9350    -9.1600    -9.9770 c3         1 0FY      -0.013200
     23 C23        -15.2040    -8.4620   -10.4740 c3         1 0FY      -0.061700
     24 C11         -6.1680    -3.1740    -7.8940 c3         1 0FY      -0.051400
     25 C40        -14.8360    -7.4390   -11.5510 c3         1 0FY      -0.019100
     26 C29         -4.2840    -0.3510     0.2070 c3         1 0FY      -0.076700
     27 N27         -4.4360    -0.5980    -2.3290 nd         1 0FY      -0.576800
     28 N16        -10.0100    -7.1580    -9.3780 nd         1 0FY      -0.360100
     29 N2          -7.7870    -4.5770    -6.6920 nb         1 0FY      -0.598000
     30 N26         -4.8140    -0.9420    -1.0250 na         1 0FY       0.533400
     31 N5          -7.0580    -3.5200    -4.2860 na         1 0FY       0.768700
     32 N36          2.0560     0.0000     1.1330 na         1 0FY       0.633900
     33 N7          -8.4590    -4.7180    -3.1120 na         1 0FY       0.565600
     34 N32         -2.0740     0.0050     1.2580 ns         1 0FY       0.007900
     35 N12         -9.3690    -5.9950    -5.7000 nu         1 0FY      -0.184300
     36 N19        -13.0150    -8.1650    -9.4110 nx         1 0FY       0.021600
     37 O31         -2.2110    -1.0010    -0.7140 o          1 0FY      -0.579100
     38 F39         -0.5380    -0.0190     3.5970 f          1 0FY      -0.070900
     39 S17         -9.0540    -6.0890    -8.4730 ss         1 0FY       0.166200
     40 H34         -0.5490     0.0020    -0.9340 ha         1 0FY       0.198000
     41 H14        -11.2340    -7.9470    -6.4300 ha         1 0FY       0.146000
     42 H28         -5.0500    -1.2950    -4.2470 h4         1 0FY       0.012100
     43 H25         -6.2410    -2.3940    -0.2610 h4         1 0FY       0.155000
     44 H35          1.9150     0.0050    -0.9420 h4         1 0FY       0.181000
     45 H37          2.0460    -0.0140     3.2130 h4         1 0FY       0.193000
     46 H8          -7.9330    -3.9120    -1.1860 h4         1 0FY       0.194000
     47 H6          -5.6310    -2.4060    -5.4090 h4         1 0FY       0.193000
     48 H211       -14.6190    -6.0100    -9.3980 hc         1 0FY       0.054200
     49 H212       -15.3410    -6.3020    -7.8050 hc         1 0FY       0.054200
     50 H222       -16.1850    -8.4800    -8.5600 hc         1 0FY       0.052700
     51 H221       -16.7470    -7.2060    -9.6590 hc         1 0FY       0.052700
     52 H201       -13.9000    -8.2880    -7.5180 hx         1 0FY       0.073200
     53 H202       -12.9260    -6.8340    -7.7970 hx         1 0FY       0.073200
     54 H242       -13.4530    -9.6630   -10.8070 hx         1 0FY       0.081200
     55 H241       -14.1970    -9.8820    -9.2140 hx         1 0FY       0.081200
     56 H23        -15.8820    -9.2000   -10.8860 hc         1 0FY       0.083700
     57 H111        -6.5970    -3.6970    -8.7410 hc         1 0FY       0.043700
     58 H113        -5.1060    -3.3790    -7.8440 hc         1 0FY       0.043700
     59 H112        -6.3250    -2.1080    -8.0110 hc         1 0FY       0.043700
     60 H402       -14.3800    -6.5740   -11.0850 hc         1 0FY       0.025033
     61 H403       -14.1370    -7.8840   -12.2480 hc         1 0FY       0.025033
     62 H401       -15.7300    -7.1350   -12.0800 hc         1 0FY       0.025033
     63 H181       -11.9740    -9.5200    -8.1990 hx         1 0FY       0.088700
     64 H182       -11.3560    -9.3670    -9.8500 hx         1 0FY       0.088700
     65 H292        -4.5620     0.6950     0.2550 h1         1 0FY       0.066200
     66 H291        -4.6940    -0.8730     1.0640 h1         1 0FY       0.066200
     67 H32         -2.5490     0.3790     2.0560 hn         1 0FY       0.203500
     68 H12         -9.8090    -6.3450    -4.8720 hn         1 0FY       0.284800
     69 H36          3.0570    -0.0020     1.1010 hn         1 0FY       0.143700
     70 H7          -9.1700    -5.3750    -2.8600 hn         1 0FY       0.144700
     71 H19        -12.8170    -7.4670   -10.1010 hn         1 0FY       0.276800
     72 C18        -11.7690    -8.8270    -9.0060 c3         1 0FY      -0.035500
@<TRIPOS>BOND
     1     1     5 ar  
     2     1     9 ar  
     3     1    40 1   
     4     2    12 1   
     5     2    13 2   
     6     2    41 1   
     7     3     8 1   
     8     3    27 2   
     9     3    42 1   
    10     4     8 2   
    11     4    30 1   
    12     4    43 1   
    13     5    32 2   
    14     5    44 1   
    15     6    10 ar  
    16     6    32 1   
    17     6    45 1   
    18     7    11 2   
    19     7    33 1   
    20     7    46 1   
    21     8    11 1   
    22     9    10 ar  
    23     9    34 1   
    24    10    38 1   
    25    11    31 1   
    26    12    28 2   
    27    12    72 1   
    28    13    35 1   
    29    13    39 1   
    30    14    16 ar  
    31    14    31 2   
    32    14    33 1   
    33    15    17 ar  
    34    15    31 1   
    35    15    47 1   
    36    16    29 ar  
    37    16    35 1   
    38    17    24 1   
    39    17    29 ar  
    40    18    26 1   
    41    18    34 1   
    42    18    37 2   
    43    19    20 1   
    44    19    21 1   
    45    19    48 1   
    46    19    49 1   
    47    20    23 1   
    48    20    50 1   
    49    20    51 1   
    50    21    36 1   
    51    21    52 1   
    52    21    53 1   
    53    22    23 1   
    54    22    36 1   
    55    22    54 1   
    56    22    55 1   
    57    23    25 1   
    58    23    56 1   
    59    24    57 1   
    60    24    58 1   
    61    24    59 1   
    62    25    60 1   
    63    25    61 1   
    64    25    62 1   
    65    26    30 1   
    66    26    65 1   
    67    26    66 1   
    68    27    30 1   
    69    28    39 1   
    70    32    69 1   
    71    33    70 1   
    72    34    67 1   
    73    35    68 1   
    74    36    71 1   
    75    36    72 1   
    76    63    72 1   
    77    64    72 1   
@<TRIPOS>SUBSTRUCTURE
     1 0FY         1 TEMP              0 ****  ****    0 ROOT
