@<TRIPOS>MOLECULE
molecule
   72    77     1     0     0
SMALL
bcc


@<TRIPOS>ATOM
      1 C34          0.0000     0.0000     0.0000 ca         1 0FY      -0.145000
      2 C14        -10.6450    -7.4740    -7.2070 cc         1 0FY      -0.344300
      3 C28         -5.1210    -1.3310    -3.1670 cd         1 0FY       0.364200
      4 C25         -5.7500    -1.9130    -1.0980 cc         1 0FY      -0.041300
      5 C35          1.3800     0.0000     0.0000 ca         1 0FY      -0.018300
      6 C37          1.4530    -0.0120     2.3060 ca         1 0FY      -0.045300
      7 C8          -7.7940    -3.9390    -2.2600 cc         1 0FY      -0.104100
      8 C10         -5.9620    -2.1800    -2.4200 cd         1 0FY      -0.296100
      9 C33         -0.6780    -0.0000     1.2170 ca         1 0FY       0.139600
     10 C38          0.0740    -0.0070     2.3920 ca         1 0FY       0.092900
     11 C9          -6.9060    -3.1800    -2.9700 cd         1 0FY       0.025700
     12 C15        -10.7780    -7.7920    -8.5400 cd         1 0FY       0.321600
     13 C13         -9.7140    -6.5170    -6.9440 cd         1 0FY       0.153500
     14 C4          -8.0370    -4.4810    -4.3430 ca         1 0FY      -0.175800
     15 C6          -6.4570    -3.1060    -5.4470 ca         1 0FY      -0.239600
     16 C3          -8.3920    -5.0160    -5.6060 ca         1 0FY       0.714200
     17 C1          -6.8310    -3.6430    -6.6250 ca         1 0FY       0.493600
     18 C30         -2.7820    -0.4730     0.2160 c          1 0FY       0.651100
     19 C21        -14.8870    -6.7680    -8.6710 c3         1 0FY      -0.107400
     20 C22        -15.8810    -7.7490    -9.3000 c3         1 0FY      -0.090400
     21 C20        -13.6310    -7.5270    -8.2410 c3         1 0FY       0.098800
     22 C24        -13.9350    -9.1600    -9.9770 c3         1 0FY       0.105800
     23 C23        -15.2040    -8.4620   -10.4740 c3         1 0FY      -0.097700
     24 C11         -6.1680    -3.1740    -7.8940 c3         1 0FY      -0.148400
     25 C40        -14.8360    -7.4390   -11.5510 c3         1 0FY      -0.111100
     26 C29         -4.2840    -0.3510     0.2070 c3         1 0FY       0.009300
     27 N27         -4.4360    -0.5980    -2.3290 nc         1 0FY      -0.440800
     28 N16        -10.0100    -7.1580    -9.3780 nc         1 0FY      -0.483100
     29 N2          -7.7870    -4.5770    -6.6920 nb         1 0FY      -0.711000
     30 N26         -4.8140    -0.9420    -1.0250 na         1 0FY       0.090400
     31 N5          -7.0580    -3.5200    -4.2860 na         1 0FY       0.143700
     32 N36          2.0560     0.0000     1.1330 na         1 0FY      -0.039100
     33 N7          -8.4590    -4.7180    -3.1120 na         1 0FY      -0.062400
     34 N32         -2.0740     0.0050     1.2580 ns         1 0FY      -0.456100
     35 N12         -9.3690    -5.9950    -5.7000 nu         1 0FY      -0.700300
     36 N19        -13.0150    -8.1650    -9.4110 nx         1 0FY      -0.650400
     37 O31         -2.2110    -1.0010    -0.7140 o          1 0FY      -0.535100
     38 F39         -0.5380    -0.0190     3.5970 f          1 0FY      -0.074900
     39 S17         -9.0540    -6.0890    -8.4730 ss         1 0FY       0.349200
     40 H34         -0.5490     0.0020    -0.9340 ha         1 0FY       0.232000
     41 H14        -11.2340    -7.9470    -6.4300 ha         1 0FY       0.167000
     42 H28         -5.0500    -1.2950    -4.2470 h4         1 0FY       0.059100
     43 H25         -6.2410    -2.3940    -0.2610 h4         1 0FY       0.187000
     44 H35          1.9150     0.0050    -0.9420 h4         1 0FY       0.221000
     45 H37          2.0460    -0.0140     3.2130 h4         1 0FY       0.231000
     46 H8          -7.9330    -3.9120    -1.1860 h4         1 0FY       0.231000
     47 H6          -5.6310    -2.4060    -5.4090 h4         1 0FY       0.212000
     48 H211       -14.6190    -6.0100    -9.3980 hc         1 0FY       0.084700
     49 H212       -15.3410    -6.3020    -7.8050 hc         1 0FY       0.084700
     50 H222       -16.1850    -8.4800    -8.5600 hc         1 0FY       0.082700
     51 H221       -16.7470    -7.2060    -9.6590 hc         1 0FY       0.082700
     52 H201       -13.9000    -8.2880    -7.5180 hx         1 0FY       0.094200
     53 H202       -12.9260    -6.8340    -7.7970 hx         1 0FY       0.094200
     54 H242       -13.4530    -9.6630   -10.8070 hx         1 0FY       0.104700
     55 H241       -14.1970    -9.8820    -9.2140 hx         1 0FY       0.104700
     56 H23        -15.8820    -9.2000   -10.8860 hc         1 0FY       0.115700
     57 H111        -6.5970    -3.6970    -8.7410 hc         1 0FY       0.086367
     58 H113        -5.1060    -3.3790    -7.8440 hc         1 0FY       0.086367
     59 H112        -6.3250    -2.1080    -8.0110 hc         1 0FY       0.086367
     60 H402       -14.3800    -6.5740   -11.0850 hc         1 0FY       0.056033
     61 H403       -14.1370    -7.8840   -12.2480 hc         1 0FY       0.056033
     62 H401       -15.7300    -7.1350   -12.0800 hc         1 0FY       0.056033
     63 H181       -11.9740    -9.5200    -8.1990 hx         1 0FY       0.119700
     64 H182       -11.3560    -9.3670    -9.8500 hx         1 0FY       0.119700
     65 H292        -4.5620     0.6950     0.2550 h1         1 0FY       0.107700
     66 H291        -4.6940    -0.8730     1.0640 h1         1 0FY       0.107700
     67 H32         -2.5490     0.3790     2.0560 hn         1 0FY       0.366500
     68 H12         -9.8090    -6.3450    -4.8720 hn         1 0FY       0.471800
     69 H36          3.0570    -0.0020     1.1010 hn         1 0FY       0.355700
     70 H7          -9.1700    -5.3750    -2.8600 hn         1 0FY       0.353700
     71 H19        -12.8170    -7.4670   -10.1010 hn         1 0FY       0.462800
     72 C18        -11.7690    -8.8270    -9.0060 c3         1 0FY       0.085500
@<TRIPOS>BOND
     1    25    23 1
     2    23    20 1
     3    23    22 1
     4    20    19 1
     5    19    21 1
     6    22    36 1
     7    36    21 1
     8    36    72 1
     9    28    39 1
    10    28    12 2
    11    39    13 1
    12    24    17 1
    13    72    12 1
    14    12     2 1
    15    17    29 ar
    16    17    15 ar
    17    29    16 ar
    18    32     5 1
    19    32     6 2
    20    13     2 2
    21    13    35 1
    22     5     1 ar
    23     6    10 ar
    24     1     9 ar
    25    15    31 1
    26    16    35 1
    27    16    14 ar
    28    10     9 ar
    29    10    38 1
    30     9    34 1
    31    34    18 1
    32    37    18 2
    33    31    14 2
    34    31    11 1
    35    14    33 1
    36    18    26 1
    37     4    30 1
    38     4     8 2
    39    26    30 1
    40    11     8 1
    41    11     7 2
    42    33     7 1
    43    30    27 1
    44     8     3 1
    45    27     3 2
    46     1    40 1
    47     2    41 1
    48     3    42 1
    49     4    43 1
    50     5    44 1
    51     6    45 1
    52     7    46 1
    53    15    47 1
    54    19    48 1
    55    19    49 1
    56    20    50 1
    57    20    51 1
    58    21    52 1
    59    21    53 1
    60    22    54 1
    61    22    55 1
    62    23    56 1
    63    24    57 1
    64    24    58 1
    65    24    59 1
    66    25    60 1
    67    25    61 1
    68    25    62 1
    69    72    63 1
    70    72    64 1
    71    26    65 1
    72    26    66 1
    73    34    67 1
    74    35    68 1
    75    32    69 1
    76    33    70 1
    77    36    71 1
@<TRIPOS>SUBSTRUCTURE
     1 0FY         1 TEMP              0 ****  ****    0 ROOT
