@<TRIPOS>MOLECULE
molecule
   39    41     1     0     0
SMALL
bcc


@<TRIPOS>ATOM
      1 CAB          0.0000     0.0000     0.0000 c3         1 0FZ       0.125700
      2 OAR          1.4290     0.0000     0.0000 os         1 0FZ      -0.314900
      3 CAX          2.0450     0.0000     1.2090 ca         1 0FZ       0.177100
      4 CAM          3.4350     0.0060     1.2790 ca         1 0FZ      -0.152000
      5 CAW          1.2860     0.0000     2.3730 ca         1 0FZ      -0.230000
      6 CAL          1.9070     0.0010     3.6060 ca         1 0FZ      -0.069000
      7 CAG          3.2960     0.0010     3.6770 ca         1 0FZ      -0.241900
      8 CAT          4.0580     0.0070     2.5040 ca         1 0FZ      -0.017300
      9 CAO          5.5600     0.0140     2.6150 c3         1 0FZ      -0.067100
     10 CAN          5.9780     0.8100     3.8510 c3         1 0FZ       0.117800
     11 NAP          5.2480     0.3680     5.0340 n2         1 0FZ      -0.578900
     12 CAS          4.0000     0.0000     4.9780 ce         1 0FZ       0.486500
     13 CAU          3.2870    -0.4080     6.2100 ca         1 0FZ      -0.000900
     14 CAI          2.2790    -1.3710     6.1490 ca         1 0FZ      -0.113000
     15 CAK          1.6200    -1.7490     7.3010 ca         1 0FZ      -0.035000
     16 CAH          3.6260     0.1620     7.4380 ca         1 0FZ      -0.113000
     17 CAJ          2.9580    -0.2240     8.5820 ca         1 0FZ      -0.035000
     18 CAV          1.9550    -1.1750     8.5140 ca         1 0FZ      -0.343500
     19 SAY          1.1080    -1.6630     9.9800 sy         1 0FZ       1.223200
     20 OAE          1.2420    -0.5850    10.8980 o          1 0FZ      -0.520800
     21 OAF         -0.1490    -2.1770     9.5640 o          1 0FZ      -0.520800
     22 NAC          1.9440    -2.9360    10.6290 nz         1 0FZ      -0.806500
     23 H1          -0.3610    -0.0010    -1.0210 h1         1 0FZ       0.048700
     24 H2          -0.3610     0.8850     0.5100 h1         1 0FZ       0.048700
     25 H3          -0.3610    -0.8840     0.5110 h1         1 0FZ       0.048700
     26 H4           4.0220    -0.0640     0.3710 ha         1 0FZ       0.160000
     27 H5           0.2050     0.0020     2.3120 ha         1 0FZ       0.146000
     28 H6           1.3150     0.0010     4.5130 ha         1 0FZ       0.130000
     29 H7           5.9840     0.4740     1.7310 hc         1 0FZ       0.071700
     30 H8           5.9190    -1.0040     2.7050 hc         1 0FZ       0.071700
     31 H9           7.0390     0.6720     4.0180 h1         1 0FZ       0.079700
     32 H10          5.7730     1.8600     3.6810 h1         1 0FZ       0.079700
     33 H14          2.0150    -1.8200     5.2000 ha         1 0FZ       0.179500
     34 H15          0.8350    -2.4940     7.2540 ha         1 0FZ       0.155000
     35 H16          4.4100     0.9070     7.4920 ha         1 0FZ       0.179500
     36 H17          3.2180     0.2200     9.5350 ha         1 0FZ       0.155000
     37 H18          2.8780    -2.6480    10.8430 hn         1 0FZ       0.491467
     38 H19          1.9690    -3.6890     9.9700 hn         1 0FZ       0.491467
     39 HAC3         1.4890    -3.2410    11.4670 hn         1 0FZ       0.491467
@<TRIPOS>BOND
     1     1     2 1   
     2     2     3 1   
     3     3     5 ar  
     4     3     4 ar  
     5     5     6 ar  
     6     4     8 ar  
     7     6     7 ar  
     8     8     9 1   
     9     8     7 ar  
    10     9    10 1   
    11     7    12 1   
    12    10    11 1   
    13    12    11 2   
    14    12    13 1   
    15    13    16 ar  
    16    13    14 ar  
    17    16    17 ar  
    18    14    15 ar  
    19    17    18 ar  
    20    15    18 ar  
    21    18    19 1   
    22    22    19 1   
    23    21    19 2   
    24    19    20 2   
    25     1    23 1   
    26     1    24 1   
    27     1    25 1   
    28     4    26 1   
    29     5    27 1   
    30     6    28 1   
    31     9    29 1   
    32     9    30 1   
    33    10    31 1   
    34    10    32 1   
    35    14    33 1   
    36    15    34 1   
    37    16    35 1   
    38    17    36 1   
    39    22    37 1   
    40    22    38 1   
    41    39    22 1   
@<TRIPOS>SUBSTRUCTURE
     1 0FZ         1 TEMP              0 ****  ****    0 ROOT
