@<TRIPOS>MOLECULE
0FZ
   39    41     1     0     0
SMALL
bcc


@<TRIPOS>ATOM
      1 CAB          0.8090     0.5750    -0.2950 c3         1 0FZ       0.107700
      2 OAR          2.1600     0.3780     0.1200 os         1 0FZ      -0.315900
      3 CAX          2.3620     0.0980     1.4500 ca         1 0FZ       0.168100
      4 CAM          1.3430    -0.0130     2.4040 ca         1 0FZ      -0.206000
      5 CAW          3.7130    -0.0770     1.8180 ca         1 0FZ      -0.164000
      6 CAL          4.0230    -0.3690     3.1370 ca         1 0FZ      -0.076000
      7 CAG          3.0150    -0.4970     4.1010 ca         1 0FZ      -0.236900
      8 CAT          1.6700    -0.3040     3.7300 ca         1 0FZ      -0.001300
      9 CAO          0.5900    -0.4350     4.7450 c3         1 0FZ      -0.073100
     10 CAN          1.0840    -0.2400     6.1780 c3         1 0FZ       0.095800
     11 NAP          2.4270    -0.6460     6.4760 n2         1 0FZ      -0.546900
     12 CAS          3.2950    -0.7770     5.5190 ce         1 0FZ       0.471500
     13 CAU          4.6550    -1.2490     5.8720 ca         1 0FZ       0.040100
     14 CAI          5.2210    -2.3440     5.1950 ca         1 0FZ      -0.134000
     15 CAK          6.4730    -2.8110     5.5550 ca         1 0FZ       0.008500
     16 CAH          5.3730    -0.6340     6.9120 ca         1 0FZ      -0.134000
     17 CAJ          6.6260    -1.1060     7.2650 ca         1 0FZ       0.008500
     18 CAV          7.2160    -2.2060     6.5970 ca         1 0FZ      -0.574500
     19 SAY          8.6090    -2.8060     7.0710 sy         1 0FZ       1.499200
     20 OAE          9.0640    -2.3740     8.2980 o          1 0FZ      -0.569300
     21 OAF          8.9220    -4.0560     6.5820 o          1 0FZ      -0.569300
     22 NAC          9.7530    -1.7350     5.9280 nz         1 0FZ      -0.784500
     23 H1           0.2080    -0.3500    -0.1220 h1         1 0FZ       0.055700
     24 H2           0.9090     0.7860    -1.3900 h1         1 0FZ       0.055700
     25 H3           0.3590     1.4470     0.2380 h1         1 0FZ       0.055700
     26 H4           0.2890     0.1300     2.1240 ha         1 0FZ       0.154000
     27 H5           4.4960     0.0260     1.0530 ha         1 0FZ       0.159000
     28 H6           5.0780    -0.4920     3.4250 ha         1 0FZ       0.119000
     29 H7          -0.2250     0.3100     4.5410 hc         1 0FZ       0.074200
     30 H8           0.1330    -1.4590     4.6420 hc         1 0FZ       0.074200
     31 H9           1.0010     0.8520     6.4620 h1         1 0FZ       0.086700
     32 H10          0.4160    -0.8200     6.8800 h1         1 0FZ       0.086700
     33 H14          4.6540    -2.8340     4.3850 ha         1 0FZ       0.186500
     34 H15          6.8940    -3.6940     5.0370 ha         1 0FZ       0.168000
     35 H16          4.9250     0.2130     7.4620 ha         1 0FZ       0.186500
     36 H17          7.1700    -0.6320     8.1040 ha         1 0FZ       0.168000
     37 H18         10.3010    -2.3360     5.3170 hn         1 0FZ       0.452467
     38 H19         10.4010    -1.1900     6.4920 hn         1 0FZ       0.452467
     39 HAC3         9.2250    -1.0930     5.3470 hn         1 0FZ       0.452467
@<TRIPOS>BOND
     1     1     2 1   
     2     1    23 1   
     3     1    24 1   
     4     1    25 1   
     5     2     3 1   
     6     3     4 ar  
     7     3     5 ar  
     8     4     8 ar  
     9     4    26 1   
    10     5     6 ar  
    11     5    27 1   
    12     6     7 ar  
    13     6    28 1   
    14     7     8 ar  
    15     7    12 1   
    16     8     9 1   
    17     9    10 1   
    18     9    29 1   
    19     9    30 1   
    20    10    11 1   
    21    10    31 1   
    22    10    32 1   
    23    11    12 2   
    24    12    13 1   
    25    13    14 ar  
    26    13    16 ar  
    27    14    15 ar  
    28    14    33 1   
    29    15    18 ar  
    30    15    34 1   
    31    16    17 ar  
    32    16    35 1   
    33    17    18 ar  
    34    17    36 1   
    35    18    19 1   
    36    19    20 2   
    37    19    21 2   
    38    19    22 1   
    39    22    37 1   
    40    22    38 1   
    41    22    39 1   
@<TRIPOS>SUBSTRUCTURE
     1 0FZ         1 TEMP              0 ****  ****    0 ROOT
