@<TRIPOS>MOLECULE
0FZ
   39    41     1     0     0
SMALL
bcc


@<TRIPOS>ATOM
      1 CAB          0.0000     0.0000     0.0000 c3         1 0FZ       0.244700
      2 OAR          1.4290     0.0000     0.0000 os         1 0FZ      -0.295900
      3 CAX          2.0450     0.0000     1.2090 ca         1 0FZ       0.190100
      4 CAM          3.4350     0.0060     1.2790 ca         1 0FZ      -0.132000
      5 CAW          1.2860     0.0000     2.3730 ca         1 0FZ      -0.218000
      6 CAL          1.9070     0.0010     3.6060 ca         1 0FZ      -0.041000
      7 CAG          3.2960     0.0010     3.6770 ca         1 0FZ      -0.235900
      8 CAT          4.0580     0.0070     2.5040 ca         1 0FZ      -0.021300
      9 CAO          5.5600     0.0140     2.6150 c3         1 0FZ       0.003900
     10 CAN          5.9780     0.8100     3.8510 c3         1 0FZ       0.156800
     11 NAP          5.2480     0.3680     5.0340 n2         1 0FZ      -0.491900
     12 CAS          4.0000     0.0000     4.9780 ce         1 0FZ       0.449500
     13 CAU          3.2870    -0.4080     6.2100 ca         1 0FZ       0.003100
     14 CAI          2.2790    -1.3710     6.1490 ca         1 0FZ      -0.099500
     15 CAK          1.6200    -1.7490     7.3010 ca         1 0FZ       0.006500
     16 CAH          3.6260     0.1620     7.4380 ca         1 0FZ      -0.099500
     17 CAJ          2.9580    -0.2240     8.5820 ca         1 0FZ       0.006500
     18 CAV          1.9550    -1.1750     8.5140 ca         1 0FZ      -0.233500
     19 SAY          1.1080    -1.6630     9.9800 sy         1 0FZ       0.932200
     20 OAE          1.2420    -0.5850    10.8980 o          1 0FZ      -0.497800
     21 OAF         -0.1490    -2.1770     9.5640 o          1 0FZ      -0.497800
     22 NAC          1.9440    -2.9360    10.6290 nz         1 0FZ      -0.131500
     23 H1          -0.3610    -0.0010    -1.0210 h1         1 0FZ       0.002700
     24 H2          -0.3610     0.8850     0.5100 h1         1 0FZ       0.002700
     25 H3          -0.3610    -0.8840     0.5110 h1         1 0FZ       0.002700
     26 H4           4.0220    -0.0640     0.3710 ha         1 0FZ       0.131000
     27 H5           0.2050     0.0020     2.3120 ha         1 0FZ       0.129000
     28 H6           1.3150     0.0010     4.5130 ha         1 0FZ       0.106000
     29 H7           5.9840     0.4740     1.7310 hc         1 0FZ       0.037200
     30 H8           5.9190    -1.0040     2.7050 hc         1 0FZ       0.037200
     31 H9           7.0390     0.6720     4.0180 h1         1 0FZ       0.037200
     32 H10          5.7730     1.8600     3.6810 h1         1 0FZ       0.037200
     33 H14          2.0150    -1.8200     5.2000 ha         1 0FZ       0.147000
     34 H15          0.8350    -2.4940     7.2540 ha         1 0FZ       0.124500
     35 H16          4.4100     0.9070     7.4920 ha         1 0FZ       0.147000
     36 H17          3.2180     0.2200     9.5350 ha         1 0FZ       0.124500
     37 H18          2.8780    -2.6480    10.8430 hn         1 0FZ       0.313133
     38 H19          1.9690    -3.6890     9.9700 hn         1 0FZ       0.313133
     39 HAC3         1.4890    -3.2410    11.4670 hn         1 0FZ       0.313133
@<TRIPOS>BOND
     1     1     2 1   
     2     1    23 1   
     3     1    24 1   
     4     1    25 1   
     5     2     3 1   
     6     3     4 ar  
     7     3     5 ar  
     8     4     8 ar  
     9     4    26 1   
    10     5     6 ar  
    11     5    27 1   
    12     6     7 ar  
    13     6    28 1   
    14     7     8 ar  
    15     7    12 1   
    16     8     9 1   
    17     9    10 1   
    18     9    29 1   
    19     9    30 1   
    20    10    11 1   
    21    10    31 1   
    22    10    32 1   
    23    11    12 2   
    24    12    13 1   
    25    13    14 ar  
    26    13    16 ar  
    27    14    15 ar  
    28    14    33 1   
    29    15    18 ar  
    30    15    34 1   
    31    16    17 ar  
    32    16    35 1   
    33    17    18 ar  
    34    17    36 1   
    35    18    19 1   
    36    19    20 2   
    37    19    21 2   
    38    19    22 1   
    39    22    37 1   
    40    22    38 1   
    41    22    39 1   
@<TRIPOS>SUBSTRUCTURE
     1 0FZ         1 TEMP              0 ****  ****    0 ROOT
