@<TRIPOS>MOLECULE
0G0
   38    40     1     0     0
SMALL
bcc


@<TRIPOS>ATOM
      1 C4           0.2870    -0.6480    -0.0820 c          1 0G0       0.703700
      2 C5           1.5840     0.0210     0.1840 cc         1 0G0      -0.037700
      3 C6           1.9340     0.3930     1.4570 cd         1 0G0       0.012600
      4 C8           2.5470    -0.4450     4.4020 cc         1 0G0       0.189600
      5 C9           2.4140    -1.4240     5.4050 cd         1 0G0      -0.158600
      6 N1           1.0790     0.2030     2.5300 n          1 0G0      -0.360000
      7 N3          -0.5200    -0.8610     1.0460 ns         1 0G0      -0.581500
      8 C2          -0.1520    -0.4820     2.3460 c          1 0G0       0.805500
      9 O4          -0.1100    -1.0180    -1.1960 o          1 0G0      -0.582500
     10 F5A          2.3970     0.2440    -0.8700 f          1 0G0      -0.133500
     11 N5           3.8920    -0.5020     3.9550 nc         1 0G0      -0.350000
     12 N6           4.5220    -1.3930     4.6000 nd         1 0G0      -0.157800
     13 N7           3.6920    -1.9880     5.4950 na         1 0G0       0.022400
     14 C1'          4.0530    -3.1070     6.3700 c3         1 0G0       0.262800
     15 O4'          3.1450    -3.1400     7.4750 os         1 0G0      -0.411600
     16 C4'          3.8050    -2.6990     8.6740 c3         1 0G0       0.098100
     17 C5'          3.2310    -3.5150     9.8300 c3         1 0G0       0.126400
     18 O5'          3.9690    -3.1230    10.9790 oh         1 0G0      -0.614800
     19 C3'          5.3140    -2.9360     8.4720 c3         1 0G0       0.093100
     20 O3'          6.0810    -1.8490     8.9430 oh         1 0G0      -0.590800
     21 C2'          5.5040    -3.0300     6.9410 c3         1 0G0       0.120100
     22 O2'          6.1190    -4.2510     6.5850 oh         1 0G0      -0.588800
     23 H1           2.9080     0.8700     1.6810 h4         1 0G0       0.195000
     24 H2           0.6280     0.4750     4.5600 h1         1 0G0       0.090200
     25 H3           1.9540     1.5440     3.8700 h1         1 0G0       0.090200
     26 H4           1.5760    -1.7440     6.0240 h4         1 0G0       0.211000
     27 H5          -1.4010    -1.3170     0.9400 hn         1 0G0       0.357500
     28 H6           3.8860    -4.0710     5.8000 h2         1 0G0       0.122700
     29 H7           3.5920    -1.6060     8.8180 h1         1 0G0       0.079700
     30 H8           3.3600    -4.6130     9.6430 h1         1 0G0       0.046200
     31 H9           2.1410    -3.2840     9.9590 h1         1 0G0       0.046200
     32 H10          3.5490    -3.5510    11.7340 ho         1 0G0       0.417000
     33 H11          5.6390    -3.8880     8.9730 h1         1 0G0       0.074700
     34 H12          5.9140    -1.7910     9.8950 ho         1 0G0       0.427000
     35 H13          6.0940    -2.1520     6.5680 h1         1 0G0       0.104700
     36 H14          7.0720    -4.1190     6.6690 ho         1 0G0       0.423000
     37 C7           1.5290     0.4980     3.8780 c3         1 0G0       0.090700
     38 O2          -0.9130    -0.7170     3.3100 o          1 0G0      -0.642500
@<TRIPOS>BOND
     1     1     2 1   
     2     1     7 1   
     3     1     9 2   
     4     2     3 2   
     5     2    10 1   
     6     3     6 1   
     7     3    23 1   
     8     4     5 2   
     9     4    11 1   
    10     4    37 1   
    11     5    13 1   
    12     5    26 1   
    13     6     8 1   
    14     6    37 1   
    15     7     8 1   
    16     7    27 1   
    17     8    38 2   
    18    11    12 2   
    19    12    13 1   
    20    13    14 1   
    21    14    15 1   
    22    14    21 1   
    23    14    28 1   
    24    15    16 1   
    25    16    17 1   
    26    16    19 1   
    27    16    29 1   
    28    17    18 1   
    29    17    30 1   
    30    17    31 1   
    31    18    32 1   
    32    19    20 1   
    33    19    21 1   
    34    19    33 1   
    35    20    34 1   
    36    21    22 1   
    37    21    35 1   
    38    22    36 1   
    39    24    37 1   
    40    25    37 1   
@<TRIPOS>SUBSTRUCTURE
     1 0G0         1 TEMP              0 ****  ****    0 ROOT
