@<TRIPOS>MOLECULE
molecule
   38    40     1     0     0
SMALL
bcc


@<TRIPOS>ATOM
      1 C4           0.0000     0.0000     0.0000 c          1 0G0       0.688700
      2 C5           1.4170     0.0000     0.0000 cc         1 0G0      -0.034700
      3 C6           2.0750     0.0000     1.1800 cd         1 0G0       0.002600
      4 C8           2.3180     1.4210     4.0710 cc         1 0G0       0.225600
      5 C9           1.5470     2.1520     4.9100 cd         1 0G0      -0.239600
      6 N1           1.3630    -0.0010     2.3520 n          1 0G0      -0.354000
      7 N3          -0.6620     0.0050     1.1740 ns         1 0G0      -0.554500
      8 C2           0.0170    -0.0000     2.3370 c          1 0G0       0.808500
      9 O4          -0.6150     0.0010    -1.0510 o          1 0G0      -0.594500
     10 F5A          2.1020    -0.0000    -1.1650 f          1 0G0      -0.130500
     11 N5           3.3400     2.2050     3.7140 nc         1 0G0      -0.356000
     12 N6           3.2100     3.3480     4.2890 nd         1 0G0      -0.184800
     13 N7           2.1480     3.3610     5.0160 na         1 0G0       0.102400
     14 C1'          1.6700     4.4890     5.8190 c3         1 0G0       0.244800
     15 O4'          1.4070     5.6310     4.9750 os         1 0G0      -0.361600
     16 C4'          2.7030     6.2060     4.6980 c3         1 0G0       0.120100
     17 C5'          2.5560     7.6660     4.2640 c3         1 0G0       0.150400
     18 O5'          1.8830     7.7230     3.0050 oh         1 0G0      -0.594800
     19 C3'          3.4690     6.1170     6.0370 c3         1 0G0       0.107100
     20 O3'          4.8450     5.8090     5.8060 oh         1 0G0      -0.579800
     21 C2'          2.7730     4.9610     6.7910 c3         1 0G0       0.087100
     22 O2'          2.1980     5.4340     8.0100 oh         1 0G0      -0.589800
     23 H1           3.1580    -0.0000     1.2010 h4         1 0G0       0.186000
     24 H2           1.4770    -0.5110     4.3780 h1         1 0G0       0.085200
     25 H3           3.0230    -0.5100     3.5180 h1         1 0G0       0.085200
     26 H4           0.6330     1.8350     5.3960 h4         1 0G0       0.198000
     27 H5          -1.6620     0.0050     1.1820 hn         1 0G0       0.370500
     28 H6           0.7770     4.2160     6.3690 h2         1 0G0       0.122700
     29 H7           3.2130     5.6290     3.9360 h1         1 0G0       0.110700
     30 H8           1.9810     8.2070     5.0060 h1         1 0G0       0.032200
     31 H9           3.5370     8.1160     4.1700 h1         1 0G0       0.032200
     32 H10          1.8560     8.6160     2.7030 ho         1 0G0       0.405000
     33 H11          3.3680     7.0430     6.5910 h1         1 0G0       0.064700
     34 H12          5.3850     6.3540     6.3530 ho         1 0G0       0.406000
     35 H13          3.4760     4.1590     6.9810 h1         1 0G0       0.078700
     36 H14          2.5710     4.9630     8.7370 ho         1 0G0       0.414000
     37 C7           2.0740     0.0000     3.6320 c3         1 0G0       0.108700
     38 O2          -0.5940     0.0040     3.3880 o          1 0G0      -0.660500
@<TRIPOS>BOND
     1    38     8 2   
     2     8     7 1   
     3     8     6 1   
     4     7     1 1   
     5    11    12 2   
     6    11     4 1   
     7    12    13 1   
     8     6    37 1   
     9     6     3 1   
    10    37     4 1   
    11     1     9 2   
    12     1     2 1   
    13     4     5 2   
    14    18    17 1   
    15    17    16 1   
    16     3     2 2   
    17     2    10 1   
    18    16    15 1   
    19    16    19 1   
    20    13     5 1   
    21    13    14 1   
    22    20    19 1   
    23    15    14 1   
    24    19    21 1   
    25    14    21 1   
    26    21    22 1   
    27     3    23 1   
    28    37    24 1   
    29    37    25 1   
    30     5    26 1   
    31     7    27 1   
    32    14    28 1   
    33    16    29 1   
    34    17    30 1   
    35    17    31 1   
    36    18    32 1   
    37    19    33 1   
    38    20    34 1   
    39    21    35 1   
    40    22    36 1   
@<TRIPOS>SUBSTRUCTURE
     1 0G0         1 TEMP              0 ****  ****    0 ROOT
