@<TRIPOS>MOLECULE
0G1
   56    60     1     0     0
SMALL
bcc


@<TRIPOS>ATOM
      1 CBE          0.3410    -0.5170    -0.5350 c3         1 0G1       0.113700
      2 OBD          1.1980     0.4830     0.0010 os         1 0G1      -0.328900
      3 CBA          1.6750     0.2560     1.2780 ca         1 0G1       0.120100
      4 CBB          1.3430    -0.8530     2.0640 ca         1 0G1      -0.182000
      5 CBC          1.8860    -0.9710     3.3420 ca         1 0G1      -0.087500
      6 CAZ          2.5490     1.2450     1.7680 ca         1 0G1      -0.182000
      7 CAY          3.0820     1.1100     3.0420 ca         1 0G1      -0.087500
      8 CAX          2.7570     0.0040     3.8470 ca         1 0G1      -0.050800
      9 CAG          3.3460    -0.1380     5.1580 cc         1 0G1      -0.059400
     10 CAH          4.7550     0.0280     5.4560 ca         1 0G1      -0.089800
     11 CAA          5.8780     0.3680     4.6970 ca         1 0G1      -0.084000
     12 CAB          7.1160     0.4240     5.3120 ca         1 0G1      -0.156000
     13 CAC          7.2760     0.1440     6.6900 ca         1 0G1      -0.054300
     14 CAJ          8.6580     0.2250     7.2910 c3         1 0G1       0.199100
     15 CAK          9.6140    -0.7730     6.6110 c3         1 0G1      -0.101400
     16 CAO          9.2040    -2.2050     6.8280 c3         1 0G1      -0.092100
     17 CAM          9.2420     1.6420     7.1420 c3         1 0G1      -0.101400
     18 CAN          8.4530     2.6750     7.9010 c3         1 0G1      -0.092100
     19 OAL          8.5470    -0.0980     8.6820 oh         1 0G1      -0.597800
     20 CAD          6.1830    -0.2010     7.4760 ca         1 0G1      -0.115000
     21 CAI          4.9210    -0.2600     6.8600 ca         1 0G1      -0.043200
     22 NAE          3.6710    -0.5650     7.3930 na         1 0G1      -0.171400
     23 CAF          2.7170    -0.4960     6.3630 cd         1 0G1      -0.084900
     24 CAP          1.3190    -0.7470     6.6440 cd         1 0G1       0.421100
     25 CAT          0.1880     0.0380     6.2090 cd         1 0G1      -0.230400
     26 SAS         -0.3150     1.3560     5.3520 ss         1 0G1       0.117200
     27 CAW         -1.9380     1.1110     5.7200 cd         1 0G1      -0.150100
     28 CAV         -2.1820     0.0110     6.5160 cc         1 0G1      -0.145000
     29 CAU         -0.9470    -0.6300     6.8150 cc         1 0G1      -0.087300
     30 NAR         -0.4430    -1.6960     7.5500 na         1 0G1       0.001400
     31 NAQ          0.8840    -1.7770     7.4390 nc         1 0G1      -0.495800
     32 H1           0.1010    -0.1350    -1.5590 h1         1 0G1       0.043367
     33 H2           0.8680    -1.5000    -0.5950 h1         1 0G1       0.043367
     34 H3          -0.5880    -0.6090     0.0790 h1         1 0G1       0.043367
     35 H4           0.6650    -1.6310     1.6900 ha         1 0G1       0.141500
     36 H5           1.6290    -1.8420     3.9640 ha         1 0G1       0.140500
     37 H6           2.7970     2.1080     1.1360 ha         1 0G1       0.141500
     38 H7           3.7680     1.8770     3.4330 ha         1 0G1       0.140500
     39 H8           5.7690     0.5830     3.6240 ha         1 0G1       0.138000
     40 H9           8.0010     0.6910     4.7150 ha         1 0G1       0.128000
     41 H10         10.6450    -0.6130     7.0240 hc         1 0G1       0.042700
     42 H11          9.6490    -0.5450     5.5150 hc         1 0G1       0.042700
     43 H12          8.2060    -2.4010     6.3680 hc         1 0G1       0.040200
     44 H13          9.1340    -2.4280     7.9210 hc         1 0G1       0.040200
     45 H14          9.9520    -2.8950     6.3680 hc         1 0G1       0.040200
     46 H15         10.3000     1.6300     7.5170 hc         1 0G1       0.042700
     47 H16          9.2730     1.9040     6.0530 hc         1 0G1       0.042700
     48 H17          7.4130     2.7470     7.5000 hc         1 0G1       0.040200
     49 H18          8.3910     2.3990     8.9820 hc         1 0G1       0.040200
     50 H19          8.9410     3.6750     7.8120 hc         1 0G1       0.040200
     51 H20          9.4390    -0.0430     9.0440 ho         1 0G1       0.401000
     52 H21          6.3030    -0.4200     8.5460 ha         1 0G1       0.157000
     53 H22          3.4900    -0.8730     8.3120 hn         1 0G1       0.309700
     54 H23         -2.7090     1.7830     5.3430 h4         1 0G1       0.172000
     55 H24         -3.1570    -0.3240     6.8690 ha         1 0G1       0.159000
     56 H25         -0.9550    -2.4090     8.0120 hn         1 0G1       0.328700
@<TRIPOS>BOND
     1     1     2 1   
     2     1    32 1   
     3     1    33 1   
     4     1    34 1   
     5     2     3 1   
     6     3     4 ar  
     7     3     6 ar  
     8     4     5 ar  
     9     4    35 1   
    10     5     8 ar  
    11     5    36 1   
    12     6     7 ar  
    13     6    37 1   
    14     7     8 ar  
    15     7    38 1   
    16     8     9 1   
    17     9    10 1   
    18     9    23 2   
    19    10    11 ar  
    20    10    21 ar  
    21    11    12 ar  
    22    11    39 1   
    23    12    13 ar  
    24    12    40 1   
    25    13    14 1   
    26    13    20 ar  
    27    14    15 1   
    28    14    17 1   
    29    14    19 1   
    30    15    16 1   
    31    15    41 1   
    32    15    42 1   
    33    16    43 1   
    34    16    44 1   
    35    16    45 1   
    36    17    18 1   
    37    17    46 1   
    38    17    47 1   
    39    18    48 1   
    40    18    49 1   
    41    18    50 1   
    42    19    51 1   
    43    20    21 ar  
    44    20    52 1   
    45    21    22 1   
    46    22    23 1   
    47    22    53 1   
    48    23    24 1   
    49    24    25 1   
    50    24    31 2   
    51    25    26 1   
    52    25    29 2   
    53    26    27 1   
    54    27    28 2   
    55    27    54 1   
    56    28    29 1   
    57    28    55 1   
    58    29    30 1   
    59    30    31 1   
    60    30    56 1   
@<TRIPOS>SUBSTRUCTURE
     1 0G1         1 TEMP              0 ****  ****    0 ROOT
