@<TRIPOS>MOLECULE
0G1
   56    60     1     0     0
SMALL
bcc


@<TRIPOS>ATOM
      1 CBE          0.0000     0.0000     0.0000 c3         1 0G1       0.244700
      2 OBD          1.4290     0.0000     0.0000 os         1 0G1      -0.310900
      3 CBA          2.0460     0.0000     1.2110 ca         1 0G1       0.144100
      4 CBB          3.4320     0.0000     1.2820 ca         1 0G1      -0.181500
      5 CBC          4.0630    -0.0010     2.5090 ca         1 0G1      -0.039500
      6 CAZ          1.2890     0.0050     2.3750 ca         1 0G1      -0.181500
      7 CAY          1.9120     0.0050     3.6050 ca         1 0G1      -0.039500
      8 CAX          3.3050    -0.0010     3.6800 ca         1 0G1      -0.038800
      9 CAG          3.9760    -0.0020     4.9980 cc         1 0G1      -0.040400
     10 CAH          4.8150    -1.0720     5.5580 ca         1 0G1      -0.096800
     11 CAA          5.2220    -2.3230     5.0880 ca         1 0G1      -0.043000
     12 CAB          6.0260    -3.1100     5.8640 ca         1 0G1      -0.137000
     13 CAC          6.4390    -2.6770     7.1160 ca         1 0G1      -0.079300
     14 CAJ          7.3240    -3.5610     7.9560 c3         1 0G1       0.231100
     15 CAK          7.0290    -5.0280     7.6380 c3         1 0G1      -0.063900
     16 CAO          5.5360    -5.3010     7.8290 c3         1 0G1      -0.006100
     17 CAM          8.7910    -3.2570     7.6460 c3         1 0G1      -0.063900
     18 CAN          9.6860    -4.2370     8.4050 c3         1 0G1      -0.006100
     19 OAL          7.0690    -3.3130     9.3400 oh         1 0G1      -0.591800
     20 CAD          6.0480    -1.4460     7.5980 ca         1 0G1      -0.076000
     21 CAI          5.2310    -0.6280     6.8250 ca         1 0G1      -0.224200
     22 NAE          4.6900     0.6240     7.0320 na         1 0G1       0.373600
     23 CAF          3.9450     1.0040     5.9420 cd         1 0G1      -0.295900
     24 CAP          3.2170     2.2810     5.8060 cd         1 0G1       0.512100
     25 CAT          3.1700     3.3190     6.7760 cd         1 0G1      -0.156400
     26 SAS          3.7460     3.7640     8.3770 ss         1 0G1      -0.264800
     27 CAW          2.9090     5.3060     8.2940 cd         1 0G1       0.045900
     28 CAV          2.2680     5.4230     7.1410 cc         1 0G1      -0.099000
     29 CAU          2.3910     4.3340     6.2670 cc         1 0G1      -0.217300
     30 NAR          1.9720     3.9220     5.0110 na         1 0G1       0.452400
     31 NAQ          2.5070     2.6560     4.7650 nc         1 0G1      -0.602800
     32 H1          -0.3610     0.0290    -1.0210 h1         1 0G1      -0.004633
     33 H2          -0.3610    -0.8990     0.4850 h1         1 0G1      -0.004633
     34 H3          -0.3610     0.8700     0.5360 h1         1 0G1      -0.004633
     35 H4           4.0200     0.0010     0.3720 ha         1 0G1       0.114500
     36 H5           5.1450    -0.0030     2.5630 ha         1 0G1       0.105500
     37 H6           0.2070     0.0100     2.3160 ha         1 0G1       0.114500
     38 H7           1.3200     0.0070     4.5120 ha         1 0G1       0.105500
     39 H8           4.9030    -2.6670     4.1120 ha         1 0G1       0.106000
     40 H9           6.3510    -4.0750     5.4940 ha         1 0G1       0.114000
     41 H10          7.6000    -5.6640     8.3030 hc         1 0G1       0.026700
     42 H11          7.3060    -5.2380     6.6120 hc         1 0G1       0.026700
     43 H12          5.1120    -5.6600     6.8980 hc         1 0G1       0.006867
     44 H13          5.4010    -6.0510     8.5990 hc         1 0G1       0.006867
     45 H14          5.0360    -4.3870     8.1240 hc         1 0G1       0.006867
     46 H15          8.9640    -3.3590     6.5820 hc         1 0G1       0.026700
     47 H16          9.0230    -2.2440     7.9540 hc         1 0G1       0.026700
     48 H17          9.6240    -5.2150     7.9430 hc         1 0G1       0.006867
     49 H18          9.3580    -4.3030     9.4350 hc         1 0G1       0.006867
     50 H19         10.7120    -3.8880     8.3740 hc         1 0G1       0.006867
     51 H20          7.2170    -4.1030     9.8330 ho         1 0G1       0.397000
     52 H21          6.3760    -1.1180     8.5770 ha         1 0G1       0.119000
     53 H22          4.8250     1.1780     7.8540 hn         1 0G1       0.123700
     54 H23          2.9140     6.0550     9.0770 h4         1 0G1       0.150000
     55 H24          1.6880     6.3030     6.8890 ha         1 0G1       0.119000
     56 H25          1.3900     4.4440     4.3850 hn         1 0G1       0.150700
@<TRIPOS>BOND
     1     1     2 1   
     2     1    32 1   
     3     1    33 1   
     4     1    34 1   
     5     2     3 1   
     6     3     4 ar  
     7     3     6 ar  
     8     4     5 ar  
     9     4    35 1   
    10     5     8 ar  
    11     5    36 1   
    12     6     7 ar  
    13     6    37 1   
    14     7     8 ar  
    15     7    38 1   
    16     8     9 1   
    17     9    10 1   
    18     9    23 2   
    19    10    11 ar  
    20    10    21 ar  
    21    11    12 ar  
    22    11    39 1   
    23    12    13 ar  
    24    12    40 1   
    25    13    14 1   
    26    13    20 ar  
    27    14    15 1   
    28    14    17 1   
    29    14    19 1   
    30    15    16 1   
    31    15    41 1   
    32    15    42 1   
    33    16    43 1   
    34    16    44 1   
    35    16    45 1   
    36    17    18 1   
    37    17    46 1   
    38    17    47 1   
    39    18    48 1   
    40    18    49 1   
    41    18    50 1   
    42    19    51 1   
    43    20    21 ar  
    44    20    52 1   
    45    21    22 1   
    46    22    23 1   
    47    22    53 1   
    48    23    24 1   
    49    24    25 1   
    50    24    31 2   
    51    25    26 1   
    52    25    29 2   
    53    26    27 1   
    54    27    28 2   
    55    27    54 1   
    56    28    29 1   
    57    28    55 1   
    58    29    30 1   
    59    30    31 1   
    60    30    56 1   
@<TRIPOS>SUBSTRUCTURE
     1 0G1         1 TEMP              0 ****  ****    0 ROOT
