@<TRIPOS>MOLECULE
molecule
   56    60     1     0     0
SMALL
bcc


@<TRIPOS>ATOM
      1 CBE          0.0000     0.0000     0.0000 c3         1 0G1       0.129700
      2 OBD          1.4290     0.0000     0.0000 os         1 0G1      -0.331900
      3 CBA          2.0460     0.0000     1.2110 ca         1 0G1       0.138100
      4 CBB          3.4320     0.0000     1.2820 ca         1 0G1      -0.195000
      5 CBC          4.0630    -0.0010     2.5090 ca         1 0G1      -0.066000
      6 CAZ          1.2890     0.0050     2.3750 ca         1 0G1      -0.195000
      7 CAY          1.9120     0.0050     3.6050 ca         1 0G1      -0.066000
      8 CAX          3.3050    -0.0010     3.6800 ca         1 0G1      -0.051800
      9 CAG          3.9760    -0.0020     4.9980 cc         1 0G1      -0.056400
     10 CAH          4.8150    -1.0720     5.5580 ca         1 0G1      -0.095800
     11 CAA          5.2220    -2.3230     5.0880 ca         1 0G1      -0.078000
     12 CAB          6.0260    -3.1100     5.8640 ca         1 0G1      -0.153000
     13 CAC          6.4390    -2.6770     7.1160 ca         1 0G1      -0.059300
     14 CAJ          7.3240    -3.5610     7.9560 c3         1 0G1       0.204100
     15 CAK          7.0290    -5.0280     7.6380 c3         1 0G1      -0.105400
     16 CAO          5.5360    -5.3010     7.8290 c3         1 0G1      -0.096600
     17 CAM          8.7910    -3.2570     7.6460 c3         1 0G1      -0.105400
     18 CAN          9.6860    -4.2370     8.4050 c3         1 0G1      -0.096600
     19 OAL          7.0690    -3.3130     9.3400 oh         1 0G1      -0.603800
     20 CAD          6.0480    -1.4460     7.5980 ca         1 0G1      -0.117000
     21 CAI          5.2310    -0.6280     6.8250 ca         1 0G1      -0.032200
     22 NAE          4.6900     0.6240     7.0320 na         1 0G1      -0.168400
     23 CAF          3.9450     1.0040     5.9420 cd         1 0G1      -0.093900
     24 CAP          3.2170     2.2810     5.8060 cd         1 0G1       0.455100
     25 CAT          3.1700     3.3190     6.7760 cd         1 0G1      -0.182400
     26 SAS          3.7460     3.7640     8.3770 ss         1 0G1      -0.146800
     27 CAW          2.9090     5.3060     8.2940 cd         1 0G1      -0.031100
     28 CAV          2.2680     5.4230     7.1410 cc         1 0G1      -0.151000
     29 CAU          2.3910     4.3340     6.2670 cc         1 0G1      -0.042300
     30 NAR          1.9720     3.9220     5.0110 na         1 0G1      -0.044600
     31 NAQ          2.5070     2.6560     4.7650 nc         1 0G1      -0.443800
     32 H1          -0.3610    -0.0030    -1.0210 h1         1 0G1       0.039700
     33 H2          -0.3610     0.8860     0.5080 h1         1 0G1       0.039700
     34 H3          -0.3610    -0.8830     0.5140 h1         1 0G1       0.039700
     35 H4           4.0200     0.0010     0.3720 ha         1 0G1       0.136000
     36 H5           5.1450    -0.0030     2.5630 ha         1 0G1       0.137000
     37 H6           0.2070     0.0100     2.3160 ha         1 0G1       0.136000
     38 H7           1.3200     0.0070     4.5120 ha         1 0G1       0.137000
     39 H8           4.9030    -2.6670     4.1120 ha         1 0G1       0.137000
     40 H9           6.3550    -4.0730     5.4920 ha         1 0G1       0.132000
     41 H10          7.6000    -5.6640     8.3030 hc         1 0G1       0.052200
     42 H11          7.3060    -5.2380     6.6120 hc         1 0G1       0.052200
     43 H12          5.0790    -5.4990     6.8660 hc         1 0G1       0.037533
     44 H13          5.4060    -6.1620     8.4740 hc         1 0G1       0.037533
     45 H14          5.0650    -4.4370     8.2810 hc         1 0G1       0.037533
     46 H15          8.9640    -3.3590     6.5820 hc         1 0G1       0.052200
     47 H16          9.0230    -2.2440     7.9540 hc         1 0G1       0.052200
     48 H17          9.3290    -4.3400     9.4220 hc         1 0G1       0.037533
     49 H18          9.6620    -5.2030     7.9140 hc         1 0G1       0.037533
     50 H19         10.7030    -3.8630     8.4160 hc         1 0G1       0.037533
     51 H20          7.1970    -4.1080     9.8310 ho         1 0G1       0.406000
     52 H21          6.3760    -1.1180     8.5770 ha         1 0G1       0.146000
     53 H22          4.8250     1.1780     7.8540 hn         1 0G1       0.300700
     54 H23          2.9150     6.0560     9.0770 h4         1 0G1       0.176000
     55 H24          1.6880     6.3030     6.8890 ha         1 0G1       0.150000
     56 H25          1.3900     4.4440     4.3850 hn         1 0G1       0.337700
@<TRIPOS>BOND
     1    28    27 2   
     2    28    29 1   
     3    27    26 1   
     4    30    29 1   
     5    30    31 1   
     6    29    25 2   
     7    31    24 2   
     8    25    26 1   
     9    25    24 1   
    10    24    23 1   
    11    23    22 1   
    12    23     9 2   
    13    22    21 1   
    14     7     6 ar  
    15     7     8 ar  
    16     6     3 ar  
    17     9     8 1   
    18     9    10 1   
    19     1     2 1   
    20     8     5 ar  
    21    21    10 ar  
    22    21    20 ar  
    23    18    17 1   
    24    10    11 ar  
    25     3     2 1   
    26     3     4 ar  
    27    20    13 ar  
    28     5     4 ar  
    29    11    12 ar  
    30    13    12 ar  
    31    13    14 1   
    32    17    14 1   
    33    19    14 1   
    34    14    15 1   
    35    15    16 1   
    36     1    32 1   
    37     1    33 1   
    38     1    34 1   
    39     4    35 1   
    40     5    36 1   
    41     6    37 1   
    42     7    38 1   
    43    11    39 1   
    44    12    40 1   
    45    15    41 1   
    46    15    42 1   
    47    16    43 1   
    48    16    44 1   
    49    16    45 1   
    50    17    46 1   
    51    17    47 1   
    52    18    48 1   
    53    18    49 1   
    54    18    50 1   
    55    19    51 1   
    56    20    52 1   
    57    22    53 1   
    58    27    54 1   
    59    28    55 1   
    60    30    56 1   
@<TRIPOS>SUBSTRUCTURE
     1 0G1         1 TEMP              0 ****  ****    0 ROOT
