@<TRIPOS>MOLECULE
0G2
   52    56     1     0     0
SMALL
bcc


@<TRIPOS>ATOM
      1 CBB         -0.3020     0.7190     0.5530 c3         1 0G2      -0.092600
      2 CAY          1.1620     0.6110     0.2300 c3         1 0G2      -0.083400
      3 CAS          2.0730     0.2120     1.4080 c3         1 0G2       0.199100
      4 CAZ          1.9210     1.1960     2.5780 c3         1 0G2      -0.083400
      5 CBC          2.8850     0.9170     3.7000 c3         1 0G2      -0.092600
      6 OBA          3.4300     0.3780     0.9800 oh         1 0G2      -0.594800
      7 CAH          1.8130    -1.2200     1.8220 ca         1 0G2      -0.073300
      8 CAI          0.6990    -1.5260     2.6030 ca         1 0G2      -0.136000
      9 CAG          2.6920    -2.2440     1.4090 ca         1 0G2      -0.145000
     10 CAF          2.4840    -3.5740     1.7480 ca         1 0G2      -0.079000
     11 CAE          1.3780    -3.9070     2.5270 ca         1 0G2      -0.096800
     12 CAB          0.8620    -5.1460     3.0660 cc         1 0G2      -0.131200
     13 CAD          0.4770    -2.8640     2.9540 ca         1 0G2      -0.045200
     14 NAC         -0.5900    -3.4490     3.6600 na         1 0G2      -0.184400
     15 CAA         -0.2940    -4.8340     3.7800 cd         1 0G2      -0.011300
     16 CAJ         -1.1470    -5.7410     4.4980 cd         1 0G2      -0.023100
     17 NAK         -2.5290    -5.5370     4.7000 na         1 0G2       0.008400
     18 NAL         -3.1270    -6.5100     5.3810 nd         1 0G2      -0.469800
     19 CAN         -2.1460    -7.4030     5.6830 cc         1 0G2       0.286600
     20 CAO         -2.0140    -8.6490     6.3840 cc         1 0G2      -0.163300
     21 CAM         -0.8460    -6.9550     5.1340 cc         1 0G2      -0.196400
     22 SAQ          0.3550    -8.0340     5.5070 ss         1 0G2      -0.015800
     23 CAP         -0.7140    -9.0890     6.3550 cd         1 0G2       0.003900
     24 CAR         -0.2050   -10.3020     6.9530 ca         1 0G2      -0.019000
     25 CAT         -0.8520   -10.8820     8.0550 ca         1 0G2      -0.116000
     26 CAU         -0.3550   -12.0520     8.6250 ca         1 0G2      -0.127500
     27 CAV          0.7910   -12.6540     8.1070 ca         1 0G2      -0.124000
     28 CAW          1.4420   -12.0820     7.0130 ca         1 0G2      -0.127500
     29 CAX          0.9490   -10.9140     6.4380 ca         1 0G2      -0.116000
     30 H1          -0.4870     1.4860     1.3430 hc         1 0G2       0.039533
     31 H2          -0.7090    -0.2610     0.9050 hc         1 0G2       0.039533
     32 H3          -0.8670     1.0200    -0.3640 hc         1 0G2       0.039533
     33 H4           1.3040    -0.1430    -0.5900 hc         1 0G2       0.046950
     34 H5           1.5320     1.6000    -0.1540 hc         1 0G2       0.046950
     35 H6           2.0990     2.2300     2.1790 hc         1 0G2       0.046950
     36 H7           0.8670     1.1520     2.9560 hc         1 0G2       0.046950
     37 H8           3.9380     0.9580     3.3260 hc         1 0G2       0.039533
     38 H9           2.7050    -0.0980     4.1300 hc         1 0G2       0.039533
     39 H10          2.7620     1.6760     4.5100 hc         1 0G2       0.039533
     40 H11          3.5130    -0.0400     0.1140 ho         1 0G2       0.398000
     41 H12          0.0090    -0.7410     2.9420 ha         1 0G2       0.139000
     42 H13          3.5820    -1.9860     0.8150 ha         1 0G2       0.135000
     43 H14          3.1810    -4.3550     1.4120 ha         1 0G2       0.138000
     44 H15          1.2930    -6.1330     2.9230 ha         1 0G2       0.165000
     45 H16         -1.0670    -2.9590     4.3750 hn         1 0G2       0.282700
     46 H17         -3.0700    -4.8050     4.3000 hn         1 0G2       0.324700
     47 H18         -2.8560    -9.1600     6.8560 ha         1 0G2       0.167000
     48 H19         -1.7540   -10.4070     8.4700 ha         1 0G2       0.137000
     49 H20         -0.8690   -12.5000     9.4880 ha         1 0G2       0.134000
     50 H21          1.1820   -13.5770     8.5590 ha         1 0G2       0.133000
     51 H22          2.3460   -12.5540     6.6020 ha         1 0G2       0.134000
     52 H23          1.4620   -10.4670     5.5720 ha         1 0G2       0.137000
@<TRIPOS>BOND
     1     1     2 1   
     2     1    30 1   
     3     1    31 1   
     4     1    32 1   
     5     2     3 1   
     6     2    33 1   
     7     2    34 1   
     8     3     4 1   
     9     3     6 1   
    10     3     7 1   
    11     4     5 1   
    12     4    35 1   
    13     4    36 1   
    14     5    37 1   
    15     5    38 1   
    16     5    39 1   
    17     6    40 1   
    18     7     8 ar  
    19     7     9 ar  
    20     8    13 ar  
    21     8    41 1   
    22     9    10 ar  
    23     9    42 1   
    24    10    11 ar  
    25    10    43 1   
    26    11    12 1   
    27    11    13 ar  
    28    12    15 2   
    29    12    44 1   
    30    13    14 1   
    31    14    15 1   
    32    14    45 1   
    33    15    16 1   
    34    16    17 1   
    35    16    21 2   
    36    17    18 1   
    37    17    46 1   
    38    18    19 2   
    39    19    20 1   
    40    19    21 1   
    41    20    23 2   
    42    20    47 1   
    43    21    22 1   
    44    22    23 1   
    45    23    24 1   
    46    24    25 ar  
    47    24    29 ar  
    48    25    26 ar  
    49    25    48 1   
    50    26    27 ar  
    51    26    49 1   
    52    27    28 ar  
    53    27    50 1   
    54    28    29 ar  
    55    28    51 1   
    56    29    52 1   
@<TRIPOS>SUBSTRUCTURE
     1 0G2         1 TEMP              0 ****  ****    0 ROOT
