@<TRIPOS>MOLECULE
molecule
   52    56     1     0     0
SMALL
bcc


@<TRIPOS>ATOM
      1 CBB          0.0000     0.0000     0.0000 c3         1 0G2      -0.097600
      2 CAY          1.5300     0.0000     0.0000 c3         1 0G2      -0.106400
      3 CAS          2.0400     0.0000     1.4430 c3         1 0G2       0.203100
      4 CAZ          3.5700     0.0210     1.4430 c3         1 0G2      -0.106400
      5 CBC          4.0640     1.2870     0.7400 c3         1 0G2      -0.097600
      6 OBA          1.5490     1.1570     2.1210 oh         1 0G2      -0.602800
      7 CAH          1.5540    -1.2400     2.1470 ca         1 0G2      -0.057300
      8 CAI          1.3260    -1.2070     3.5060 ca         1 0G2      -0.113000
      9 CAG          1.3360    -2.4020     1.4190 ca         1 0G2      -0.150000
     10 CAF          0.8940    -3.5360     2.0400 ca         1 0G2      -0.080000
     11 CAE          0.6620    -3.5280     3.4190 ca         1 0G2      -0.106800
     12 CAB          0.2020    -4.5350     4.3730 cc         1 0G2      -0.175200
     13 CAD          0.8780    -2.3500     4.1600 ca         1 0G2      -0.031200
     14 NAC          0.5730    -2.6260     5.4760 na         1 0G2      -0.165400
     15 CAA          0.1700    -3.9380     5.5950 cc         1 0G2       0.001700
     16 CAJ         -0.2360    -4.5920     6.8480 cc         1 0G2       0.006900
     17 NAK          0.0690    -5.8630     7.2340 na         1 0G2       0.005400
     18 NAL         -0.5080    -6.0910     8.4860 nc         1 0G2      -0.485800
     19 CAN         -1.1560    -4.9900     8.8720 cd         1 0G2       0.337600
     20 CAO         -1.9450    -4.4860     9.9870 cd         1 0G2      -0.177300
     21 CAM         -0.9990    -4.0240     7.8660 cd         1 0G2      -0.178400
     22 SAQ         -1.8340    -2.5450     8.3210 ss         1 0G2      -0.164800
     23 CAP         -2.3630    -3.2310     9.8460 cc         1 0G2       0.066900
     24 CAR         -3.1780    -2.5080    10.8460 ca         1 0G2      -0.017000
     25 CAT         -3.5690    -1.1890    10.6100 ca         1 0G2      -0.112000
     26 CAU         -4.3300    -0.5200    11.5470 ca         1 0G2      -0.125500
     27 CAV         -4.7050    -1.1540    12.7180 ca         1 0G2      -0.122000
     28 CAW         -4.3190    -2.4610    12.9580 ca         1 0G2      -0.125500
     29 CAX         -3.5640    -3.1430    12.0270 ca         1 0G2      -0.112000
     30 H1          -0.3610    -0.9100    -0.4650 hc         1 0G2       0.038367
     31 H2          -0.3610     0.8570    -0.5550 hc         1 0G2       0.038367
     32 H3          -0.3610     0.0520     1.0200 hc         1 0G2       0.038367
     33 H4           1.8910    -0.8840    -0.5110 hc         1 0G2       0.051950
     34 H5           1.8910     0.8850    -0.5110 hc         1 0G2       0.051950
     35 H6           3.9310     0.0110     2.4640 hc         1 0G2       0.051950
     36 H7           3.9430    -0.8510     0.9200 hc         1 0G2       0.051950
     37 H8           3.5130     2.1440     1.1100 hc         1 0G2       0.038367
     38 H9           3.9090     1.1920    -0.3280 hc         1 0G2       0.038367
     39 H10          5.1200     1.4230     0.9410 hc         1 0G2       0.038367
     40 H11          1.4230     1.8560     1.5010 ho         1 0G2       0.407000
     41 H12          1.5680    -0.3180     4.0750 ha         1 0G2       0.147000
     42 H13          1.5180    -2.4100     0.3520 ha         1 0G2       0.133000
     43 H14          0.7260    -4.4400     1.4660 ha         1 0G2       0.131000
     44 H15         -0.0600    -5.5620     4.1500 ha         1 0G2       0.154000
     45 H16          0.6370    -1.9720     6.2310 hn         1 0G2       0.306700
     46 H17          0.6160    -6.5190     6.7120 hn         1 0G2       0.342700
     47 H18         -2.1690    -5.0840    10.8620 ha         1 0G2       0.159000
     48 H19         -3.2770    -0.6920     9.6930 ha         1 0G2       0.136000
     49 H20         -4.6350     0.5030    11.3650 ha         1 0G2       0.133000
     50 H21         -5.3000    -0.6240    13.4510 ha         1 0G2       0.131000
     51 H22         -4.6180    -2.9520    13.8760 ha         1 0G2       0.133000
     52 H23         -3.2630    -4.1670    12.2160 ha         1 0G2       0.136000
@<TRIPOS>BOND
     1    27    26 ar  
     2    27    28 ar  
     3    26    25 ar  
     4    28    29 ar  
     5    25    24 ar  
     6    29    24 ar  
     7    24    23 1   
     8    23    20 2   
     9    23    22 1   
    10    20    19 1   
    11    22    21 1   
    12    19    21 1   
    13    19    18 2   
    14    21    16 2   
    15    18    17 1   
    16    16    17 1   
    17    16    15 1   
    18    12    15 2   
    19    12    11 1   
    20    15    14 1   
    21    11    10 ar  
    22    11    13 ar  
    23    14    13 1   
    24    10     9 ar  
    25    13     8 ar  
    26     9     7 ar  
    27     8     7 ar  
    28     7     3 1   
    29     3     6 1   
    30     3     2 1   
    31     3     4 1   
    32     2     1 1   
    33     4     5 1   
    34     1    30 1   
    35     1    31 1   
    36     1    32 1   
    37     2    33 1   
    38     2    34 1   
    39     4    35 1   
    40     4    36 1   
    41     5    37 1   
    42     5    38 1   
    43     5    39 1   
    44     6    40 1   
    45     8    41 1   
    46     9    42 1   
    47    10    43 1   
    48    12    44 1   
    49    14    45 1   
    50    17    46 1   
    51    20    47 1   
    52    25    48 1   
    53    26    49 1   
    54    27    50 1   
    55    28    51 1   
    56    29    52 1   
@<TRIPOS>SUBSTRUCTURE
     1 0G2         1 TEMP              0 ****  ****    0 ROOT
