@<TRIPOS>MOLECULE
0G2
   52    56     1     0     0
SMALL
bcc


@<TRIPOS>ATOM
      1 CBB          0.0000     0.0000     0.0000 c3         1 0G2      -0.006100
      2 CAY          1.5300     0.0000     0.0000 c3         1 0G2      -0.064900
      3 CAS          2.0400     0.0000     1.4430 c3         1 0G2       0.231100
      4 CAZ          3.5700     0.0210     1.4430 c3         1 0G2      -0.064900
      5 CBC          4.0640     1.2870     0.7400 c3         1 0G2      -0.006100
      6 OBA          1.5490     1.1570     2.1210 oh         1 0G2      -0.590800
      7 CAH          1.5540    -1.2400     2.1470 ca         1 0G2      -0.077300
      8 CAI          1.3260    -1.2070     3.5060 ca         1 0G2      -0.070000
      9 CAG          1.3360    -2.4020     1.4190 ca         1 0G2      -0.132000
     10 CAF          0.8940    -3.5360     2.0400 ca         1 0G2      -0.045000
     11 CAE          0.6620    -3.5280     3.4190 ca         1 0G2      -0.102800
     12 CAB          0.2020    -4.5350     4.3730 cc         1 0G2      -0.153200
     13 CAD          0.8780    -2.3500     4.1600 ca         1 0G2      -0.225200
     14 NAC          0.5730    -2.6260     5.4760 na         1 0G2       0.384600
     15 CAA          0.1700    -3.9380     5.5950 cd         1 0G2      -0.179300
     16 CAJ         -0.2360    -4.5920     6.8480 cd         1 0G2      -0.139100
     17 NAK          0.0690    -5.8630     7.2340 na         1 0G2       0.519400
     18 NAL         -0.5080    -6.0910     8.4860 nd         1 0G2      -0.650800
     19 CAN         -1.1560    -4.9900     8.8720 cc         1 0G2       0.368600
     20 CAO         -1.9450    -4.4860     9.9870 cc         1 0G2      -0.145300
     21 CAM         -0.9990    -4.0240     7.8660 cc         1 0G2      -0.161400
     22 SAQ         -1.8340    -2.5450     8.3210 ss         1 0G2      -0.279800
     23 CAP         -2.3630    -3.2310     9.8460 cd         1 0G2       0.110900
     24 CAR         -3.1780    -2.5080    10.8460 ca         1 0G2      -0.011000
     25 CAT         -3.5690    -1.1890    10.6100 ca         1 0G2      -0.090000
     26 CAU         -4.3300    -0.5200    11.5470 ca         1 0G2      -0.098000
     27 CAV         -4.7050    -1.1540    12.7180 ca         1 0G2      -0.095000
     28 CAW         -4.3190    -2.4610    12.9580 ca         1 0G2      -0.098000
     29 CAX         -3.5640    -3.1430    12.0270 ca         1 0G2      -0.090000
     30 H1          -0.3610    -0.9090    -0.4650 hc         1 0G2       0.007367
     31 H2          -0.3610     0.8570    -0.5550 hc         1 0G2       0.007367
     32 H3          -0.3610     0.0520     1.0200 hc         1 0G2       0.007367
     33 H4           1.8910     0.8840    -0.5110 hc         1 0G2       0.026700
     34 H5           1.8910    -0.8850    -0.5110 hc         1 0G2       0.026700
     35 H6           3.9310     0.0110     2.4640 hc         1 0G2       0.026700
     36 H7           3.9430    -0.8510     0.9200 hc         1 0G2       0.026700
     37 H8           3.5130     2.1440     1.1100 hc         1 0G2       0.007367
     38 H9           3.9090     1.1920    -0.3280 hc         1 0G2       0.007367
     39 H10          5.1200     1.4230     0.9410 hc         1 0G2       0.007367
     40 H11          1.4100     1.8520     1.4990 ho         1 0G2       0.399000
     41 H12          1.5670    -0.3170     4.0750 ha         1 0G2       0.119000
     42 H13          1.5230    -2.4110     0.3520 ha         1 0G2       0.115000
     43 H14          0.7260    -4.4400     1.4660 ha         1 0G2       0.101000
     44 H15         -0.0600    -5.5620     4.1500 ha         1 0G2       0.127000
     45 H16          0.6370    -1.9720     6.2310 hn         1 0G2       0.125700
     46 H17          0.6230    -6.5160     6.7160 hn         1 0G2       0.152700
     47 H18         -2.1690    -5.0840    10.8620 ha         1 0G2       0.131000
     48 H19         -3.2770    -0.6920     9.6930 ha         1 0G2       0.114000
     49 H20         -4.6350     0.5030    11.3650 ha         1 0G2       0.104500
     50 H21         -5.3000    -0.6240    13.4510 ha         1 0G2       0.103000
     51 H22         -4.6180    -2.9520    13.8760 ha         1 0G2       0.104500
     52 H23         -3.2630    -4.1670    12.2160 ha         1 0G2       0.114000
@<TRIPOS>BOND
     1     1     2 1   
     2     1    30 1   
     3     1    31 1   
     4     1    32 1   
     5     2     3 1   
     6     2    33 1   
     7     2    34 1   
     8     3     4 1   
     9     3     6 1   
    10     3     7 1   
    11     4     5 1   
    12     4    35 1   
    13     4    36 1   
    14     5    37 1   
    15     5    38 1   
    16     5    39 1   
    17     6    40 1   
    18     7     8 ar  
    19     7     9 ar  
    20     8    13 ar  
    21     8    41 1   
    22     9    10 ar  
    23     9    42 1   
    24    10    11 ar  
    25    10    43 1   
    26    11    12 1   
    27    11    13 ar  
    28    12    15 2   
    29    12    44 1   
    30    13    14 1   
    31    14    15 1   
    32    14    45 1   
    33    15    16 1   
    34    16    17 1   
    35    16    21 2   
    36    17    18 1   
    37    17    46 1   
    38    18    19 2   
    39    19    20 1   
    40    19    21 1   
    41    20    23 2   
    42    20    47 1   
    43    21    22 1   
    44    22    23 1   
    45    23    24 1   
    46    24    25 ar  
    47    24    29 ar  
    48    25    26 ar  
    49    25    48 1   
    50    26    27 ar  
    51    26    49 1   
    52    27    28 ar  
    53    27    50 1   
    54    28    29 ar  
    55    28    51 1   
    56    29    52 1   
@<TRIPOS>SUBSTRUCTURE
     1 0G2         1 TEMP              0 ****  ****    0 ROOT
