@<TRIPOS>MOLECULE
molecule
   39    40     1     0     0
SMALL
bcc


@<TRIPOS>ATOM
      1 F5           0.0000     0.0000     0.0000 f          1 0G4      -0.219500
      2 C5           1.3510     0.0000     0.0000 cc         1 0G4      -0.026100
      3 C4           2.0680     0.0000     1.2160 cc         1 0G4       0.117500
      4 N4           1.3940    -0.0000     2.4160 nz         1 0G4      -0.616600
      5 N3           3.3940     0.0010     1.1960 nd         1 0G4      -0.849100
      6 C2           4.0570     0.0000     0.0400 c          1 0G4       0.845900
      7 O2           5.2770     0.0000     0.0490 o          1 0G4      -0.781500
      8 C6           2.0400    -0.0050    -1.1670 cd         1 0G4      -0.074400
      9 N1           3.4040    -0.0010    -1.1360 n          1 0G4      -0.385000
     10 C1'          4.1620    -0.0050    -2.3900 c3         1 0G4       0.321500
     11 O4'          3.2520    -0.0150    -3.4990 os         1 0G4      -0.398600
     12 C2'          5.0490     1.2620    -2.4620 c3         1 0G4       0.013700
     13 S3'          5.0880     1.6060    -4.2660 ss         1 0G4      -0.415200
     14 C4'          3.9710     0.2220    -4.7340 c3         1 0G4       0.261200
     15 C5'          3.0160     0.6460    -5.8510 c3         1 0G4       0.247400
     16 O5'          2.3440     1.8490    -5.4720 os         1 0G4      -0.581200
     17 PA           1.2610     2.5820    -6.4120 p5         1 0G4       1.441800
     18 O1A         -0.0240     1.6290    -6.5940 o          1 0G4      -0.843500
     19 O2A          1.8630     2.8560    -7.7360 o          1 0G4      -0.843500
     20 O3A          0.8100     3.9690    -5.7300 os         1 0G4      -0.717800
     21 PB           0.0310     5.2750    -6.2600 p5         1 0G4       1.396700
     22 O2B         -1.4340     4.8510    -6.7780 o          1 0G4      -0.661000
     23 O1B          0.7910     5.8840    -7.3730 o          1 0G4      -0.661000
     24 N3B         -0.1170     6.3870    -5.0050 n7         1 0G4      -0.887400
     25 PG          -0.9290     7.7700    -5.5180 p5         1 0G4       1.125800
     26 O3G         -1.0490     8.8060    -4.2930 o          1 0G4      -0.604500
     27 O1G         -2.4020     7.3690    -6.0310 o          1 0G4      -0.604500
     28 O2C         -0.1760     8.4000    -6.6260 o          1 0G4      -0.604500
     29 H1           0.8200     0.8170     2.4760 hn         1 0G4       0.367467
     30 H2           0.8190    -0.8170     2.4750 hn         1 0G4       0.367467
     31 H3           1.5130    -0.0050    -2.1140 h4         1 0G4       0.182000
     32 H4           4.7900    -0.8870    -2.4330 h2         1 0G4       0.037700
     33 H5           4.5910     2.0830    -1.9250 h1         1 0G4       0.085200
     34 H6           6.0450     1.0550    -2.0890 h1         1 0G4       0.085200
     35 H7           4.5440    -0.6520    -5.0180 h2         1 0G4       0.031700
     36 H8           2.2870    -0.1370    -6.0190 h1         1 0G4       0.037700
     37 H9           3.5780     0.8180    -6.7610 h1         1 0G4       0.037700
     38 H12         -0.2200     6.0670    -4.0620 hn         1 0G4       0.404800
     39 H43          2.0540    -0.0020     3.1690 hn         1 0G4       0.367467
@<TRIPOS>BOND
     1    23    21 1
     2    27    25 1
     3    24    21 1
     4    24    25 1
     5    21    22 1
     6    21    20 1
     7    26    25 1
     8    25    28 1
     9    20    17 1
    10    17    18 1
    11    17    19 1
    12    17    16 1
    13     1     2 1
    14     4     3 1
    15    16    15 1
    16     2     3 1
    17     2     8 2
    18    15    14 1
    19     3     5 2
    20     8     9 1
    21    11    14 1
    22    11    10 1
    23     5     6 1
    24     9     6 1
    25     9    10 1
    26    14    13 1
    27     6     7 2
    28    10    12 1
    29    13    12 1
    30     4    29 1
    31     4    30 1
    32     8    31 1
    33    10    32 1
    34    12    33 1
    35    12    34 1
    36    14    35 1
    37    15    36 1
    38    15    37 1
    39    24    38 1
    40    39     4 1
@<TRIPOS>SUBSTRUCTURE
     1 0G4         1 TEMP              0 ****  ****    0 ROOT
