@<TRIPOS>MOLECULE
0G4
   40    41     1     0     0
SMALL
bcc


@<TRIPOS>ATOM
      1 F5           0.7740     2.1590     1.2080 f          1 0G4      -0.159000
      2 C5           1.8850     1.4070     0.9810 c2         1 0G4      -0.051000
      3 C4           2.8430     1.2040     2.1000 c2         1 0G4      -0.315000
      4 N4           2.1340     0.5250     3.2570 nz         1 0G4       0.001000
      5 N3           4.0790     0.6560     1.7820 n2         1 0G4      -0.382000
      6 C2           4.2880     0.0410     0.5970 c2         1 0G4       0.314000
      7 O2           5.3620    -0.5350     0.2470 o          1 0G4      -0.518000
      8 C6           2.1550     0.9240    -0.2740 c2         1 0G4      -0.115000
      9 N1           3.2440     0.0790    -0.4780 n          1 0G4      -0.283000
     10 C1'          3.6640    -0.1810    -1.8180 c3         1 0G4       0.150000
     11 O4'          2.5660    -0.8290    -2.5590 os         1 0G4      -0.251000
     12 C2'          4.1010     1.0450    -2.6600 c3         1 0G4      -0.319000
     13 S3'          3.8810     0.6130    -4.3560 ss         1 0G4       0.008000
     14 C4'          2.8410    -0.8210    -3.9400 c3         1 0G4      -0.099000
     15 C5'          1.6070    -0.7350    -4.7780 c2         1 0G4       0.347000
     16 O5'          0.4430    -0.8440    -4.2970 os         1 0G4      -0.462000
     17 PA          -0.9850    -0.5040    -5.3650 p5         1 0G4       2.036000
     18 O1A         -0.2170     0.3020    -6.3110 o          1 0G4      -0.794000
     19 O2A         -2.0640    -0.1300    -4.4680 o          1 0G4      -0.794000
     20 O3A         -1.1740    -2.0010    -5.9280 os         1 0G4      -1.271000
     21 PB          -1.5950    -3.4480    -6.5350 p5         1 0G4       2.034000
     22 O2B         -2.3280    -3.2440    -7.7890 o          1 0G4      -0.804500
     23 O1B         -1.9160    -4.4010    -5.4740 o          1 0G4      -0.804500
     24 N3B          0.0460    -4.0870    -7.1950 ny         1 0G4      -0.923000
     25 PG           1.7820    -4.0170    -6.7930 p5         1 0G4       1.872000
     26 O3G          2.1140    -5.3670    -6.3000 o          1 0G4      -0.791000
     27 O1G          1.8440    -3.0600    -5.4700 oh         1 0G4      -0.827000
     28 O2C          2.4030    -3.3100    -7.9260 o          1 0G4      -0.791000
     29 H1           2.7730     0.5550     4.0460 hn         1 0G4       0.136000
     30 H2           1.8140    -0.4520     3.1510 hn         1 0G4       0.136000
     31 H3           1.5240     1.1560    -1.1490 h4         1 0G4       0.126000
     32 H4           4.5140    -0.9300    -1.7780 h2         1 0G4       0.147000
     33 H5           3.4960     1.9470    -2.4060 h1         1 0G4       0.128500
     34 H6           5.1750     1.2590    -2.4570 h1         1 0G4       0.128500
     35 H7           3.3890    -1.7630    -4.2280 h2         1 0G4       0.158000
     36 H8           1.7400    -0.5490    -5.8750 h4         1 0G4       0.207000
     37 H9           1.8060    -3.5440    -4.6480 ho         1 0G4       0.262000
     38 H12         -0.0030    -3.7660    -8.1560 hn         1 0G4       0.213500
     39 H43          1.3250     1.1040     3.4630 hn         1 0G4       0.136000
     40 H3B2        -0.1500    -5.0810    -7.1940 hn         1 0G4       0.213500
@<TRIPOS>BOND
     1     1     2 1   
     2     2     3 1   
     3     2     8 1   
     4     3     4 1   
     5     3     5 1   
     6     4    29 1   
     7     4    30 1   
     8     4    39 1   
     9     5     6 1   
    10     6     7 1   
    11     6     9 1   
    12     8     9 1   
    13     8    31 1   
    14     9    10 1   
    15    10    11 1   
    16    10    12 1   
    17    10    32 1   
    18    11    14 1   
    19    12    13 1   
    20    12    33 1   
    21    12    34 1   
    22    13    14 1   
    23    14    15 1   
    24    14    35 1   
    25    15    16 1   
    26    15    36 1   
    27    16    17 1   
    28    17    18 1   
    29    17    19 1   
    30    17    20 1   
    31    20    21 1   
    32    21    22 1   
    33    21    23 1   
    34    21    24 1   
    35    24    25 1   
    36    24    38 1   
    37    24    40 1   
    38    25    26 1   
    39    25    27 1   
    40    25    28 1   
    41    27    37 1   
@<TRIPOS>SUBSTRUCTURE
     1 0G4         1 TEMP              0 ****  ****    0 ROOT
