@<TRIPOS>MOLECULE
0G8
   34    35     1     0     0
SMALL
bcc


@<TRIPOS>ATOM
      1 O2           0.1680    -1.0990     0.0320 o          1 0G8      -0.718100
      2 C2           1.3630    -0.7600    -0.2110 c          1 0G8       0.752500
      3 N3           2.3460    -0.8640     0.7660 ne         1 0G8      -0.800100
      4 C4           3.6140    -0.4910     0.4330 cf         1 0G8       0.682500
      5 N4           4.6040    -0.5070     1.4460 nv         1 0G8      -0.890800
      6 C5           3.9650    -0.0590    -0.8760 cf         1 0G8      -0.583700
      7 C6           2.9760     0.0410    -1.8650 c1         1 0G8      -0.113900
      8 N1           1.6980    -0.2920    -1.5370 n          1 0G8      -0.342400
      9 C1'          0.6180    -0.2030    -2.5050 c3         1 0G8       0.319500
     10 O4'          0.5380     1.0800    -3.1520 os         1 0G8      -0.400600
     11 C2'          0.6400    -1.3250    -3.5710 c3         1 0G8      -0.016300
     12 S3'          0.6090    -0.5740    -5.1720 ss         1 0G8      -0.425200
     13 C4'          0.9600     1.0840    -4.5060 c3         1 0G8       0.271200
     14 C5'          2.4320     1.4510    -4.6730 c3         1 0G8       0.129400
     15 O5'          2.5270     2.8080    -5.0070 os         1 0G8      -0.589200
     16 PA           3.7440     3.2320    -6.0150 p5         1 0G8       1.566800
     17 O2A          3.7410     4.6930    -6.1520 o          1 0G8      -0.839500
     18 O1A          3.8410     2.2550    -7.1070 o          1 0G8      -0.839500
     19 O3A          4.9820     2.8440    -4.9150 os         1 0G8      -0.825800
     20 PB           6.1810     2.5450    -3.9590 p5         1 0G8       1.794500
     21 O1B          5.7460     3.4240    -2.6920 oh         1 0G8      -0.806400
     22 O3B          7.5600     2.7490    -4.3830 o          1 0G8      -0.857300
     23 O2B          5.8680     1.0780    -3.4340 oh         1 0G8      -0.806400
     24 H1           5.5110    -0.6830     1.0720 hn         1 0G8       0.367800
     25 H2           4.3950    -1.0910     2.2270 hn         1 0G8       0.367800
     26 H3           4.9920     0.2170    -1.1330 ha         1 0G8       0.133000
     27 H4           4.8140     3.5990    -2.5980 ho         1 0G8       0.488500
     28 H5          -0.3610    -0.2500    -1.9270 h2         1 0G8       0.099700
     29 H6           1.5480    -1.9650    -3.4750 h1         1 0G8       0.070700
     30 H7          -0.2620    -1.9670    -3.4500 h1         1 0G8       0.070700
     31 H8           0.2990     1.8280    -5.0190 h2         1 0G8       0.090700
     32 H9           2.9440     1.2530    -3.6820 h1         1 0G8       0.081700
     33 H10          2.8940     0.8310    -5.4920 h1         1 0G8       0.081700
     34 H43          4.9650     0.8490    -3.1950 ho         1 0G8       0.488500
@<TRIPOS>BOND
     1     1     2 2   
     2     2     3 1   
     3     2     8 1   
     4     3     4 2   
     5     4     5 1   
     6     4     6 1   
     7     5    24 1   
     8     5    25 1   
     9     6     7 2   
    10     6    26 1   
    11     7     8 2   
    12     8     9 1   
    13     9    10 1   
    14     9    11 1   
    15     9    28 1   
    16    10    13 1   
    17    11    12 1   
    18    11    29 1   
    19    11    30 1   
    20    12    13 1   
    21    13    14 1   
    22    13    31 1   
    23    14    15 1   
    24    14    32 1   
    25    14    33 1   
    26    15    16 1   
    27    16    17 1   
    28    16    18 1   
    29    16    19 1   
    30    19    20 1   
    31    20    21 1   
    32    20    22 2   
    33    20    23 1   
    34    21    27 1   
    35    23    34 1   
@<TRIPOS>SUBSTRUCTURE
     1 0G8         1 TEMP              0 ****  ****    0 ROOT
