@<TRIPOS>MOLECULE
0GA
   25    25     1     0     0
SMALL
bcc


@<TRIPOS>ATOM
      1 OAD          2.2450     2.0340    -1.0550 o          1 0GA      -0.828800
      2 CAL          1.8580     0.9200    -0.6070 c          1 0GA       0.928800
      3 OAB          1.6330     0.6810     0.6110 o          1 0GA      -0.828800
      4 CAN          1.7200    -0.2470    -1.5930 ce         1 0GA       0.061900
      5 CAG          2.7530    -0.8710    -2.1910 c2         1 0GA      -0.333200
      6 CAA          4.1550    -0.4520    -2.0220 c3         1 0GA      -0.014900
      7 OAK          0.3920    -0.5870    -1.8000 os         1 0GA      -0.224200
      8 CAP          0.1270    -1.8750    -2.2630 ca         1 0GA       0.043100
      9 CAI          0.6090    -2.9940    -1.5800 ca         1 0GA      -0.138000
     10 CAH          0.2240    -4.2710    -1.9820 ca         1 0GA      -0.207000
     11 CAJ         -0.6440    -4.4300    -3.0580 ca         1 0GA      -0.093000
     12 CAO         -0.7520    -2.0350    -3.3670 ca         1 0GA       0.167100
     13 OAF         -1.1720    -0.8890    -3.9790 oh         1 0GA      -0.519100
     14 CAQ         -1.1450    -3.3300    -3.7620 ca         1 0GA      -0.218600
     15 CAM         -2.0830    -3.6000    -4.9180 c          1 0GA       0.916200
     16 OAC         -2.5680    -2.6230    -5.5710 o          1 0GA      -0.851300
     17 OAE         -2.3640    -4.8000    -5.2040 o          1 0GA      -0.851300
     18 H2           2.5850    -1.7370    -2.8480 ha         1 0GA       0.108000
     19 H3           4.7330    -1.2280    -1.4570 hc         1 0GA       0.015033
     20 H4           4.2210     0.5180    -1.4670 hc         1 0GA       0.015033
     21 H5           4.6440    -0.3240    -3.0210 hc         1 0GA       0.015033
     22 H6           1.2940    -2.8430    -0.7340 ha         1 0GA       0.136000
     23 H7           0.6060    -5.1490    -1.4450 ha         1 0GA       0.096000
     24 H8          -0.9590    -5.4340    -3.3860 ha         1 0GA       0.138000
     25 H9          -1.7820    -1.1290    -4.7060 ho         1 0GA       0.466000
@<TRIPOS>BOND
     1     1     2 1   
     2     2     3 1   
     3     2     4 1   
     4     4     5 2   
     5     4     7 1   
     6     5     6 1   
     7     5    18 1   
     8     6    19 1   
     9     6    20 1   
    10     6    21 1   
    11     7     8 1   
    12     8     9 ar  
    13     8    12 ar  
    14     9    10 ar  
    15     9    22 1   
    16    10    11 ar  
    17    10    23 1   
    18    11    14 ar  
    19    11    24 1   
    20    12    13 1   
    21    12    14 ar  
    22    13    25 1   
    23    14    15 1   
    24    15    16 1   
    25    15    17 1   
@<TRIPOS>SUBSTRUCTURE
     1 0GA         1 TEMP              0 ****  ****    0 ROOT
