@<TRIPOS>MOLECULE
0GA
   25    26     1     0     0
SMALL
bcc


@<TRIPOS>ATOM
      1 OAD          0.0000     0.0000     0.0000 o          1 0GA      -0.592000
      2 CAL          1.2150     0.0000     0.0000 c2         1 0GA       0.387000
      3 OAB          1.8890     0.0000     1.1670 o          1 0GA      -0.592000
      4 CAN          1.9520    -0.0060    -1.2760 c2         1 0GA       0.193000
      5 CAG          3.2860    -0.0060    -1.2760 c2         1 0GA      -0.515000
      6 CAA          4.0410    -0.1340    -2.5750 DU         1 0GA      -0.129000
      7 OAK          1.2730    -0.0120    -2.4540 os         1 0GA      -0.193000
      8 CAP          0.5360     1.0870    -2.7710 ca         1 0GA       0.053000
      9 CAI          0.5870     2.2110    -1.9650 ca         1 0GA      -0.175000
     10 CAH         -0.1600     3.3340    -2.2810 ca         1 0GA      -0.132000
     11 CAJ         -0.9610     3.3420    -3.4020 ca         1 0GA      -0.096000
     12 CAO         -0.2640     1.0820    -3.9090 ca         1 0GA       0.072000
     13 OAF         -0.3180    -0.0180    -4.7020 oh         1 0GA      -0.221000
     14 CAQ         -1.0240     2.2150    -4.2260 ca         1 0GA      -0.101000
     15 CAM         -1.8800     2.2210    -5.4260 c2         1 0GA       0.433000
     16 OAC         -2.6050     3.3150    -5.7310 o          1 0GA      -0.632500
     17 OAE         -1.9320     1.2400    -6.1400 o          1 0GA      -0.632500
     18 H2           3.4690     0.8460    -1.9190 DU         1 0GA       0.265000
     19 H3           4.3140    -1.1700    -2.7330 ha         1 0GA       0.032667
     20 H4           4.9370     0.4730    -2.5330 ha         1 0GA       0.032667
     21 H5           3.4140     0.2030    -3.3910 ha         1 0GA       0.032667
     22 H6           1.2150     2.2130    -1.0820 ha         1 0GA       0.129000
     23 H7          -0.1140     4.2090    -1.6450 ha         1 0GA       0.079000
     24 H8          -1.5450     4.2220    -3.6430 ha         1 0GA       0.119000
     25 H9          -0.8000    -0.6990    -4.2620 ho         1 0GA       0.186000
@<TRIPOS>BOND
     1     1     2 1   
     2     2     3 1   
     3     2     4 1   
     4     4     5 1   
     5     4     7 1   
     6     5     6 1   
     7     5    18 1   
     8     6    18 1   
     9     6    19 1   
    10     6    20 1   
    11     6    21 1   
    12     7     8 1   
    13     8     9 1   
    14     8    12 1   
    15     9    10 1   
    16     9    22 1   
    17    10    11 1   
    18    10    23 1   
    19    11    14 1   
    20    11    24 1   
    21    12    13 1   
    22    12    14 1   
    23    13    25 1   
    24    14    15 1   
    25    15    16 1   
    26    15    17 1   
@<TRIPOS>SUBSTRUCTURE
     1 0GA         1 TEMP              0 ****  ****    0 ROOT
