@<TRIPOS>MOLECULE
molecule
   25    25     1     0     0
SMALL
bcc


@<TRIPOS>ATOM
      1 OAD          0.0000     0.0000     0.0000 o          1 0GA      -0.837800
      2 CAL          1.2150     0.0000     0.0000 c          1 0GA       0.865800
      3 OAB          1.8890     0.0000     1.1670 o          1 0GA      -0.837800
      4 CAN          1.9520    -0.0060    -1.2760 ce         1 0GA       0.026900
      5 CAG          3.2860    -0.0060    -1.2760 c2         1 0GA      -0.228200
      6 CAA          4.0410    -0.1340    -2.5750 c3         1 0GA      -0.048900
      7 OAK          1.2730    -0.0120    -2.4540 os         1 0GA      -0.264200
      8 CAP          0.5360     1.0870    -2.7710 ca         1 0GA       0.103100
      9 CAI          0.5870     2.2110    -1.9650 ca         1 0GA      -0.180000
     10 CAH         -0.1600     3.3340    -2.2810 ca         1 0GA      -0.153000
     11 CAJ         -0.9610     3.3420    -3.4020 ca         1 0GA      -0.130000
     12 CAO         -0.2640     1.0820    -3.9090 ca         1 0GA       0.096100
     13 OAF         -0.3180    -0.0180    -4.7020 oh         1 0GA      -0.488100
     14 CAQ         -1.0240     2.2150    -4.2260 ca         1 0GA      -0.110600
     15 CAM         -1.8800     2.2210    -5.4260 c          1 0GA       0.891200
     16 OAC         -2.6050     3.3150    -5.7310 o          1 0GA      -0.850800
     17 OAE         -1.9320     1.2400    -6.1400 o          1 0GA      -0.850800
     18 H2           3.8260    -0.0010    -0.3370 ha         1 0GA       0.150000
     19 H3           3.5650    -0.8830    -3.1960 hc         1 0GA       0.022367
     20 H4           4.0370     0.8190    -3.0900 hc         1 0GA       0.022367
     21 H5           5.0630    -0.4300    -2.3710 hc         1 0GA       0.022367
     22 H6           1.2150     2.2130    -1.0820 ha         1 0GA       0.143000
     23 H7          -0.1140     4.2090    -1.6450 ha         1 0GA       0.096000
     24 H8          -1.5450     4.2220    -3.6430 ha         1 0GA       0.138000
     25 H9          -0.7460    -0.7190    -4.2380 ho         1 0GA       0.401000
@<TRIPOS>BOND
     1    17    15 1   
     2    16    15 1   
     3    15    14 1   
     4    14    11 ar  
     5    14    12 ar  
     6    13    12 1   
     7    11    10 ar  
     8    12     8 ar  
     9    10     9 ar  
    10     8     9 ar  
    11     8     7 1   
    12     7     4 1   
    13     6     5 1   
    14     4     5 2   
    15     4     2 1   
    16     1     2 1   
    17     2     3 1   
    18     5    18 1   
    19     6    19 1   
    20     6    20 1   
    21     6    21 1   
    22     9    22 1   
    23    10    23 1   
    24    11    24 1   
    25    13    25 1   
@<TRIPOS>SUBSTRUCTURE
     1 0GA         1 TEMP              0 ****  ****    0 ROOT
