@<TRIPOS>MOLECULE
0GD
   48    50     1     0     0
SMALL
bcc


@<TRIPOS>ATOM
      1 C08         -0.1140    -0.6060    -0.1250 c3         1 0GD      -0.067800
      2 C04          1.3170    -0.2310    -0.0540 ca         1 0GD       0.004700
      3 C05          2.0100    -0.3280     1.1650 ca         1 0GD      -0.279300
      4 C03          1.9930     0.2290    -1.1760 ca         1 0GD      -0.285300
      5 C02          3.3760     0.5910    -1.0620 ca         1 0GD       0.658200
      6 N07          4.0250     1.1480    -2.1630 nv         1 0GD      -0.937500
      7 N01          4.0590     0.4700     0.1190 nb         1 0GD      -0.735000
      8 C06          3.3660     0.0320     1.2000 cp         1 0GD       0.464800
      9 C09          4.0960    -0.0720     2.4800 cp         1 0GD      -0.069500
     10 C10          3.4770     0.3450     3.6680 ca         1 0GD      -0.102500
     11 C11          4.1560     0.2590     4.8800 ca         1 0GD      -0.104000
     12 C14          5.4020    -0.5820     2.5220 ca         1 0GD      -0.102500
     13 C13          6.0790    -0.6700     3.7350 ca         1 0GD      -0.104000
     14 C12          5.4610    -0.2460     4.9170 ca         1 0GD      -0.202300
     15 C15          6.1830    -0.3540     6.2130 c3         1 0GD       0.176100
     16 N16          7.0300     0.8670     6.4460 ny         1 0GD      -0.768000
     17 C17          7.7800     0.8240     7.7340 c3         1 0GD       0.098800
     18 C18          6.9210     1.1570     8.9540 c3         1 0GD      -0.046100
     19 C19          7.7710     1.0980    10.1760 ca         1 0GD      -0.099300
     20 C20          8.1100    -0.1450    10.7180 ca         1 0GD      -0.168000
     21 C21          8.8960    -0.2000    11.8830 ca         1 0GD       0.144900
     22 F25          9.2290    -1.4010    12.4080 f          1 0GD      -0.121900
     23 C22          9.3360     0.9870    12.5020 ca         1 0GD      -0.138000
     24 C23          8.9830     2.2130    11.9490 ca         1 0GD      -0.091000
     25 C24          8.2060     2.2750    10.7910 ca         1 0GD      -0.130000
     26 H081        -0.3010    -1.5510     0.4420 hc         1 0GD       0.057700
     27 H082        -0.7400     0.2050     0.3270 hc         1 0GD       0.057700
     28 H083        -0.4420    -0.7540    -1.1830 hc         1 0GD       0.057700
     29 H05          1.5000    -0.6950     2.0650 ha         1 0GD       0.145000
     30 H03          1.4740     0.3240    -2.1410 ha         1 0GD       0.154000
     31 H071         3.6440     0.9070    -3.0470 hn         1 0GD       0.420800
     32 H072         5.0160     1.2220    -2.1250 hn         1 0GD       0.420800
     33 H10          2.4510     0.7470     3.6390 ha         1 0GD       0.167500
     34 H14          5.8950    -0.9130     1.5920 ha         1 0GD       0.167500
     35 H11          3.6560     0.5780     5.8070 ha         1 0GD       0.136500
     36 H13          7.0970    -1.0890     3.7600 ha         1 0GD       0.136500
     37 H151         6.8690    -1.2500     6.2200 hx         1 0GD       0.105700
     38 H152         5.4630    -0.4400     7.0770 hx         1 0GD       0.105700
     39 H16          7.6950     0.9520     5.6680 hn         1 0GD       0.450800
     40 H171         8.6260     1.5690     7.6610 hx         1 0GD       0.108200
     41 H172         8.2220    -0.2080     7.8520 hx         1 0GD       0.108200
     42 H181         6.0760     0.4220     9.0490 hc         1 0GD       0.070700
     43 H182         6.4730     2.1820     8.8460 hc         1 0GD       0.070700
     44 H20          7.7610    -1.0800    10.2580 ha         1 0GD       0.145000
     45 H24          7.9290     3.2550    10.3730 ha         1 0GD       0.140000
     46 H22          9.9480     0.9310    13.4160 ha         1 0GD       0.169000
     47 H23          9.3180     3.1460    12.4320 ha         1 0GD       0.157000
     48 H162         6.4220     1.6950     6.4290 hn         1 0GD       0.450800
@<TRIPOS>BOND
     1     1     2 1   
     2     1    26 1   
     3     1    27 1   
     4     1    28 1   
     5     2     3 ar  
     6     2     4 ar  
     7     3     8 ar  
     8     3    29 1   
     9     4     5 ar  
    10     4    30 1   
    11     5     6 1   
    12     5     7 ar  
    13     6    31 1   
    14     6    32 1   
    15     7     8 ar  
    16     8     9 1   
    17     9    10 ar  
    18     9    12 ar  
    19    10    11 ar  
    20    10    33 1   
    21    11    14 ar  
    22    11    35 1   
    23    12    13 ar  
    24    12    34 1   
    25    13    14 ar  
    26    13    36 1   
    27    14    15 1   
    28    15    16 1   
    29    15    37 1   
    30    15    38 1   
    31    16    17 1   
    32    16    39 1   
    33    16    48 1   
    34    17    18 1   
    35    17    40 1   
    36    17    41 1   
    37    18    19 1   
    38    18    42 1   
    39    18    43 1   
    40    19    20 ar  
    41    19    25 ar  
    42    20    21 ar  
    43    20    44 1   
    44    21    22 1   
    45    21    23 ar  
    46    23    24 ar  
    47    23    46 1   
    48    24    25 ar  
    49    24    47 1   
    50    25    45 1   
@<TRIPOS>SUBSTRUCTURE
     1 0GD         1 TEMP              0 ****  ****    0 ROOT
