@<TRIPOS>MOLECULE
0GD
   47    49     1     0     0
SMALL
bcc


@<TRIPOS>ATOM
      1 C08          0.0000     0.0000     0.0000 c3         1 0GD       0.063200
      2 C04          1.5070     0.0000     0.0000 ca         1 0GD      -0.051300
      3 C05          2.2150     0.0000     1.1920 ca         1 0GD      -0.225300
      4 C03          2.2140    -0.0040    -1.1900 ca         1 0GD      -0.230300
      5 C02          3.6050    -0.0030    -1.1570 ca         1 0GD       0.503200
      6 N07          4.3230    -0.0070    -2.3470 nv         1 0GD      -0.659500
      7 N01          4.2530     0.0010    -0.0030 nb         1 0GD      -0.590000
      8 C06          3.6060    -0.0010     1.1560 cp         1 0GD       0.451800
      9 C09          4.3730    -0.0010     2.4250 cp         1 0GD      -0.152500
     10 C10          5.7670    -0.0000     2.4010 ca         1 0GD      -0.081000
     11 C11          6.4760    -0.0010     3.5850 ca         1 0GD      -0.094000
     12 C14          3.7040     0.0040     3.6480 ca         1 0GD      -0.081000
     13 C13          4.4230     0.0040     4.8260 ca         1 0GD      -0.094000
     14 C12          5.8050    -0.0020     4.7950 ca         1 0GD      -0.090300
     15 C15          6.5850    -0.0030     6.0850 c3         1 0GD       0.203100
     16 N16          6.8380     1.3810     6.5050 n7         1 0GD      -0.584200
     17 C17          7.5980     1.4200     7.7610 c3         1 0GD       0.144800
     18 C18          7.8410     2.8750     8.1670 c3         1 0GD       0.027900
     19 C19          8.6210     2.9140     9.4560 ca         1 0GD      -0.063300
     20 C20         10.0020     2.9330     9.4270 ca         1 0GD      -0.132000
     21 C21         10.7180     2.9680    10.6120 ca         1 0GD       0.106900
     22 F25         12.0680     2.9870    10.5860 f          1 0GD      -0.128900
     23 C22         10.0490     2.9860    11.8240 ca         1 0GD      -0.137000
     24 C23          8.6660     2.9670    11.8500 ca         1 0GD      -0.072000
     25 C24          7.9530     2.9360    10.6660 ca         1 0GD      -0.110000
     26 H081        -0.3610     0.4040    -0.9380 hc         1 0GD       0.010367
     27 H082        -0.3610    -1.0140     0.1190 hc         1 0GD       0.010367
     28 H083        -0.3610     0.6100     0.8190 hc         1 0GD       0.010367
     29 H05          1.6910    -0.0010     2.1400 ha         1 0GD       0.124000
     30 H03          1.6950     0.1460    -2.1290 ha         1 0GD       0.120000
     31 H071         4.5490    -0.8750    -2.7920 hn         1 0GD       0.276300
     32 H072         4.6340     0.8560    -2.7470 hn         1 0GD       0.276300
     33 H10          6.2930     0.0010     1.4540 ha         1 0GD       0.117000
     34 H14          2.6210     0.0090     3.6740 ha         1 0GD       0.117000
     35 H11          7.5590    -0.0030     3.5660 ha         1 0GD       0.106500
     36 H13          3.9040     0.0050     5.7760 ha         1 0GD       0.106500
     37 H151         6.0150    -0.5140     6.8510 h1         1 0GD       0.009700
     38 H152         7.5290    -0.5130     5.9360 h1         1 0GD       0.009700
     39 H16          7.3500     1.8590     5.7910 hn         1 0GD       0.256800
     40 H171         7.0350     0.9170     8.5390 h1         1 0GD       0.009200
     41 H172         8.5490     0.9200     7.6230 h1         1 0GD       0.009200
     42 H181         8.4040     3.3770     7.3890 hc         1 0GD       0.025700
     43 H182         6.8900     3.3750     8.3050 hc         1 0GD       0.025700
     44 H20         10.5240     2.9650     8.4790 ha         1 0GD       0.121000
     45 H24          6.8700     2.9220    10.6870 ha         1 0GD       0.112000
     46 H22         10.6080     3.0120    12.7520 ha         1 0GD       0.119000
     47 H23          8.1420     2.9830    12.7980 ha         1 0GD       0.106000
@<TRIPOS>BOND
     1     1     2 1   
     2     1    26 1   
     3     1    27 1   
     4     1    28 1   
     5     2     3 ar  
     6     2     4 ar  
     7     3     8 ar  
     8     3    29 1   
     9     4     5 ar  
    10     4    30 1   
    11     5     6 1   
    12     5     7 ar  
    13     6    31 1   
    14     6    32 1   
    15     7     8 ar  
    16     8     9 1   
    17     9    10 ar  
    18     9    12 ar  
    19    10    11 ar  
    20    10    33 1   
    21    11    14 ar  
    22    11    35 1   
    23    12    13 ar  
    24    12    34 1   
    25    13    14 ar  
    26    13    36 1   
    27    14    15 1   
    28    15    16 1   
    29    15    37 1   
    30    15    38 1   
    31    16    17 1   
    32    16    39 1   
    33    17    18 1   
    34    17    40 1   
    35    17    41 1   
    36    18    19 1   
    37    18    42 1   
    38    18    43 1   
    39    19    20 ar  
    40    19    25 ar  
    41    20    21 ar  
    42    20    44 1   
    43    21    22 1   
    44    21    23 ar  
    45    23    24 ar  
    46    23    46 1   
    47    24    25 ar  
    48    24    47 1   
    49    25    45 1   
@<TRIPOS>SUBSTRUCTURE
     1 0GD         1 TEMP              0 ****  ****    0 ROOT
