@<TRIPOS>MOLECULE
molecule
   47    49     1     0     0
SMALL
bcc


@<TRIPOS>ATOM
      1 C08          0.0000     0.0000     0.0000 c3         1 0GD      -0.049800
      2 C04          1.5070     0.0000     0.0000 ca         1 0GD      -0.043300
      3 C05          2.2150     0.0000     1.1920 ca         1 0GD      -0.253300
      4 C03          2.2140    -0.0040    -1.1900 ca         1 0GD      -0.261300
      5 C02          3.6050    -0.0030    -1.1570 ca         1 0GD       0.685200
      6 N07          4.3230    -0.0070    -2.3470 nv         1 0GD      -1.083500
      7 N01          4.2530     0.0010    -0.0030 nb         1 0GD      -0.718000
      8 C06          3.6060    -0.0010     1.1560 cp         1 0GD       0.496800
      9 C09          4.3730    -0.0010     2.4250 cp         1 0GD      -0.145500
     10 C10          5.7670    -0.0000     2.4010 ca         1 0GD      -0.102000
     11 C11          6.4760    -0.0010     3.5850 ca         1 0GD      -0.123000
     12 C14          3.7040     0.0040     3.6480 ca         1 0GD      -0.102000
     13 C13          4.4230     0.0040     4.8260 ca         1 0GD      -0.123000
     14 C12          5.8050    -0.0020     4.7950 ca         1 0GD      -0.078300
     15 C15          6.5850    -0.0030     6.0850 c3         1 0GD       0.204100
     16 N16          6.8380     1.3810     6.5050 n7         1 0GD      -0.817200
     17 C17          7.5980     1.4200     7.7610 c3         1 0GD       0.159800
     18 C18          7.8410     2.8750     8.1670 c3         1 0GD      -0.037100
     19 C19          8.6210     2.9140     9.4560 ca         1 0GD      -0.058300
     20 C20         10.0020     2.9330     9.4270 ca         1 0GD      -0.166000
     21 C21         10.7180     2.9680    10.6120 ca         1 0GD       0.134900
     22 F25         12.0680     2.9870    10.5860 f          1 0GD      -0.141900
     23 C22         10.0490     2.9860    11.8240 ca         1 0GD      -0.171000
     24 C23          8.6660     2.9670    11.8500 ca         1 0GD      -0.101000
     25 C24          7.9530     2.9360    10.6660 ca         1 0GD      -0.140000
     26 H081        -0.3610     0.4040    -0.9380 hc         1 0GD       0.047367
     27 H082        -0.3610    -1.0140     0.1190 hc         1 0GD       0.047367
     28 H083        -0.3610     0.6100     0.8190 hc         1 0GD       0.047367
     29 H05          1.6910    -0.0010     2.1400 ha         1 0GD       0.141000
     30 H03          1.6950     0.1460    -2.1290 ha         1 0GD       0.143000
     31 H071         4.5490    -0.8750    -2.7920 hn         1 0GD       0.435300
     32 H072         4.6340     0.8560    -2.7470 hn         1 0GD       0.435300
     33 H10          6.2930     0.0010     1.4540 ha         1 0GD       0.144000
     34 H14          2.6210     0.0090     3.6740 ha         1 0GD       0.144000
     35 H11          7.5590    -0.0030     3.5660 ha         1 0GD       0.132500
     36 H13          3.9040     0.0050     5.7760 ha         1 0GD       0.132500
     37 H151         6.0150    -0.5140     6.8510 h1         1 0GD       0.038700
     38 H152         7.5290    -0.5130     5.9360 h1         1 0GD       0.038700
     39 H16          7.3500     1.8590     5.7910 hn         1 0GD       0.356800
     40 H171         7.0350     0.9170     8.5390 h1         1 0GD       0.036200
     41 H172         8.5490     0.9200     7.6230 h1         1 0GD       0.036200
     42 H181         8.4040     3.3770     7.3890 hc         1 0GD       0.058200
     43 H182         6.8900     3.3750     8.3050 hc         1 0GD       0.058200
     44 H20         10.5240     2.9650     8.4790 ha         1 0GD       0.145000
     45 H24          6.8700     2.9220    10.6870 ha         1 0GD       0.137000
     46 H22         10.6080     3.0120    12.7520 ha         1 0GD       0.144000
     47 H23          8.1420     2.9830    12.7980 ha         1 0GD       0.137000
@<TRIPOS>BOND
     1     1     2 1   
     2     2     3 ar  
     3     2     4 ar  
     4     3     8 ar  
     5     4     5 ar  
     6     5     6 1   
     7     5     7 ar  
     8     7     8 ar  
     9     8     9 1   
    10     9    10 ar  
    11     9    12 ar  
    12    10    11 ar  
    13    11    14 ar  
    14    12    13 ar  
    15    13    14 ar  
    16    14    15 1   
    17    15    16 1   
    18    16    17 1   
    19    17    18 1   
    20    18    19 1   
    21    19    20 ar  
    22    19    25 ar  
    23    20    21 ar  
    24    21    22 1   
    25    21    23 ar  
    26    23    24 ar  
    27    24    25 ar  
    28     1    26 1   
    29     1    27 1   
    30     1    28 1   
    31     3    29 1   
    32     4    30 1   
    33     6    31 1   
    34     6    32 1   
    35    10    33 1   
    36    12    34 1   
    37    11    35 1   
    38    13    36 1   
    39    15    37 1   
    40    15    38 1   
    41    16    39 1   
    42    17    40 1   
    43    17    41 1   
    44    18    42 1   
    45    18    43 1   
    46    20    44 1   
    47    25    45 1   
    48    23    46 1   
    49    24    47 1   
@<TRIPOS>SUBSTRUCTURE
     1 0GD         1 TEMP              0 ****  ****    0 ROOT
