@<TRIPOS>MOLECULE
0GF
   17    17     1     0     0
SMALL
bcc


@<TRIPOS>ATOM
      1 C23          0.0000     0.0000     0.0000 c          1 0GF       0.972200
      2 C24          1.4770     0.0000     0.0000 ca         1 0GF      -0.090600
      3 C25          2.1780     0.0000     1.2070 ca         1 0GF      -0.075000
      4 C26          3.5570     0.0010     1.2010 ca         1 0GF      -0.109300
      5 C27          4.2460     0.0010    -0.0000 ca         1 0GF       0.041100
      6 C28          3.5570     0.0010    -1.2010 ca         1 0GF      -0.125000
      7 C29          2.1780    -0.0050    -1.2080 ca         1 0GF      -0.066000
      8 C30          4.3150     0.0020     2.5030 c3         1 0GF       0.062200
      9 O7          -0.6080     0.0000     1.0520 o          1 0GF      -0.881300
     10 Br           6.1380     0.0010    -0.0000 br         1 0GF      -0.214100
     11 H24          1.6410     0.0690     2.1460 ha         1 0GF       0.128000
     12 H25          4.1020     0.0050    -2.1370 ha         1 0GF       0.099000
     13 H26          1.6420    -0.0910    -2.1460 ha         1 0GF       0.133000
     14 H27          5.0510    -0.7930     2.4930 hc         1 0GF       0.003033
     15 H28          4.8150     0.9550     2.6300 hc         1 0GF       0.003033
     16 H29          3.6250    -0.1550     3.3230 hc         1 0GF       0.003033
     17 OXT         -0.6740     0.0050    -1.1660 o          1 0GF      -0.881300
@<TRIPOS>BOND
     1     1     2 1   
     2     1     9 1   
     3     1    17 1   
     4     2     3 ar  
     5     2     7 ar  
     6     3     4 ar  
     7     3    11 1   
     8     4     5 ar  
     9     4     8 1   
    10     5     6 ar  
    11     5    10 1   
    12     6     7 ar  
    13     6    12 1   
    14     7    13 1   
    15     8    14 1   
    16     8    15 1   
    17     8    16 1   
@<TRIPOS>SUBSTRUCTURE
     1 0GF         1 TEMP              0 ****  ****    0 ROOT
