@<TRIPOS>MOLECULE
molecule
   88    91     1     0     0
SMALL
bcc


@<TRIPOS>ATOM
      1 N1           0.0000     0.0000     0.0000 n3         1 0GO      -0.693600
      2 C2           1.4670     0.0000     0.0000 c3         1 0GO       0.088200
      3 C3           1.9440     0.0000     1.4600 c3         1 0GO      -0.078400
      4 C4           0.7150     0.5640     2.2230 c3         1 0GO      -0.090400
      5 C5          -0.4620    -0.0280     1.4070 c3         1 0GO       0.151800
      6 C6           2.0150    -1.2320    -0.7430 c3         1 0GO      -0.126400
      7 C7           2.2860    -0.6520    -2.1500 c3         1 0GO       0.105000
      8 N8           2.4850     0.7890    -1.9480 n          1 0GO      -0.485800
      9 C9           2.0200     1.1830    -0.7480 c          1 0GO       0.744500
     10 O10          2.0440     2.3210    -0.3310 o          1 0GO      -0.607500
     11 C11          3.1090     1.6830    -2.9280 c3         1 0GO       0.066700
     12 C12          4.3340     2.3160    -2.3220 c          1 0GO       0.644100
     13 N13          5.0740     3.1810    -3.0440 ns         1 0GO      -0.583900
     14 O14          4.6550     2.0470    -1.1830 o          1 0GO      -0.572100
     15 C15         -0.5270    -1.1470    -0.7500 c3         1 0GO       0.150800
     16 C16         -2.0360    -0.9810    -0.9410 c3         1 0GO      -0.083400
     17 C17         -2.5860    -2.1760    -1.7220 c3         1 0GO      -0.094100
     18 C18          2.1140     2.7750    -3.3270 c3         1 0GO      -0.106100
     19 C19          6.2650     3.7960    -2.4540 c3         1 0GO       0.120700
     20 C20          6.5540     5.1240    -3.1560 c3         1 0GO       0.135100
     21 C21          7.7220     5.8260    -2.4610 c3         1 0GO       0.136800
     22 N22          7.9210     7.1530    -3.0570 n7         1 0GO      -0.812200
     23 C23          9.0380     7.8580    -2.4120 c3         1 0GO       0.206100
     24 C24          7.4620     2.8580    -2.6260 c3         1 0GO      -0.048100
     25 C25          7.2290     1.5980    -1.8310 ca         1 0GO      -0.065300
     26 C26          7.6470     1.5220    -0.5160 ca         1 0GO      -0.116500
     27 C27          7.4330     0.3670     0.2120 ca         1 0GO      -0.120500
     28 C28          6.8030    -0.7140    -0.3760 ca         1 0GO      -0.128000
     29 C29          6.3850    -0.6390    -1.6920 ca         1 0GO      -0.120500
     30 C30          6.5950     0.5190    -2.4180 ca         1 0GO      -0.116500
     31 O31          6.8930     4.8770    -4.5230 oh         1 0GO      -0.597800
     32 C32          9.2120     9.2120    -3.0500 ca         1 0GO      -0.087300
     33 C33         10.0460     9.3590    -4.1430 ca         1 0GO      -0.108000
     34 C34         10.2060    10.6010    -4.7270 ca         1 0GO      -0.129000
     35 C35          9.5330    11.6960    -4.2210 ca         1 0GO      -0.121000
     36 C36          8.6970    11.5480    -3.1290 ca         1 0GO      -0.077300
     37 C37          8.5330    10.3060    -2.5460 ca         1 0GO      -0.123000
     38 C38          7.9620    12.7420    -2.5760 c3         1 0GO      -0.030400
     39 C39          8.9710    13.8010    -2.1290 c3         1 0GO      -0.085100
     40 C40          7.0540    13.3290    -3.6600 c3         1 0GO      -0.085100
     41 H2           2.1680    -1.0080     1.7890 hc         1 0GO       0.061700
     42 H3           2.8010     0.6510     1.5820 hc         1 0GO       0.061700
     43 H4           0.7030     1.6470     2.1870 hc         1 0GO       0.060200
     44 H5           0.6960     0.2030     3.2440 hc         1 0GO       0.060200
     45 H6          -0.6600    -1.0460     1.7170 h1         1 0GO       0.043200
     46 H7          -1.3470     0.5870     1.5230 h1         1 0GO       0.043200
     47 H8           1.2710    -2.0180    -0.7860 hc         1 0GO       0.069700
     48 H9           2.9330    -1.5800    -0.2860 hc         1 0GO       0.069700
     49 H10          3.1800    -1.0970    -2.5710 h1         1 0GO       0.042700
     50 H11          1.4340    -0.8250    -2.7960 h1         1 0GO       0.042700
     51 H12          3.3920     1.1150    -3.8060 h1         1 0GO       0.066700
     52 H13          4.8200     3.3870    -3.9900 hn         1 0GO       0.313500
     53 H14         -0.3310    -2.0590    -0.1990 h1         1 0GO       0.035700
     54 H15         -0.0440    -1.1990    -1.7180 h1         1 0GO       0.035700
     55 H16         -2.2320    -0.0690    -1.4910 hc         1 0GO       0.050700
     56 H17         -2.5190    -0.9300     0.0280 hc         1 0GO       0.050700
     57 H18         -2.3270    -3.0940    -1.2080 hc         1 0GO       0.033033
     58 H19         -3.6640    -2.0950    -1.7950 hc         1 0GO       0.033033
     59 H20         -2.1560    -2.1860    -2.7170 hc         1 0GO       0.033033
     60 H21          1.1030     2.4060    -3.2020 hc         1 0GO       0.051367
     61 H22          2.2620     3.6450    -2.6990 hc         1 0GO       0.051367
     62 H23          2.2730     3.0470    -4.3640 hc         1 0GO       0.051367
     63 H24          6.0950     3.9740    -1.3990 h1         1 0GO       0.089700
     64 H25          5.6750     5.7550    -3.1110 h1         1 0GO       0.038700
     65 H26          8.6220     5.2360    -2.5830 h1         1 0GO       0.046200
     66 H27          7.5010     5.9340    -1.4060 h1         1 0GO       0.046200
     67 H28          7.0840     7.6930    -2.9580 hn         1 0GO       0.350800
     68 H30          9.9470     7.2820    -2.5340 h1         1 0GO       0.039700
     69 H31          8.8260     7.9810    -1.3570 h1         1 0GO       0.039700
     70 H32          7.5780     2.6080    -3.6730 hc         1 0GO       0.060700
     71 H33          8.3590     3.3480    -2.2700 hc         1 0GO       0.060700
     72 H34          8.1400     2.3690    -0.0560 ha         1 0GO       0.121500
     73 H35          7.7600     0.3080     1.2430 ha         1 0GO       0.121500
     74 H36          6.6380    -1.6200     0.1940 ha         1 0GO       0.121000
     75 H37          5.8900    -1.4850    -2.1530 ha         1 0GO       0.121500
     76 H38          6.2680     0.5780    -3.4490 ha         1 0GO       0.121500
     77 H39          6.4270     5.4810    -5.0760 ho         1 0GO       0.407000
     78 H40         10.5750     8.5010    -4.5400 ha         1 0GO       0.136000
     79 H41         10.8610    10.7160    -5.5830 ha         1 0GO       0.130000
     80 H42          9.6590    12.6700    -4.6780 ha         1 0GO       0.131000
     81 H43          7.8780    10.1900    -1.6910 ha         1 0GO       0.127000
     82 H44          7.3600    12.4360    -1.7290 hc         1 0GO       0.053700
     83 H45          8.4670    14.5530    -1.5350 hc         1 0GO       0.036367
     84 H46          9.4160    14.2670    -3.0000 hc         1 0GO       0.036367
     85 H47          9.7470    13.3320    -1.5350 hc         1 0GO       0.036367
     86 H48          6.4940    12.5310    -4.1320 hc         1 0GO       0.036367
     87 H49          6.3670    14.0370    -3.2120 hc         1 0GO       0.036367
     88 H50          7.6590    13.8340    -4.4030 hc         1 0GO       0.036367
@<TRIPOS>BOND
     1    10     9 2   
     2    18    11 1   
     3     3     4 1   
     4     3     2 1   
     5     9     2 1   
     6     9     8 1   
     7     4     5 1   
     8    11     8 1   
     9    11    12 1   
    10     5     1 1   
    11     2     1 1   
    12     2     6 1   
    13     8     7 1   
    14     1    15 1   
    15    23    22 1   
    16    23    32 1   
    17    12    14 2   
    18    12    13 1   
    19    33    32 ar  
    20    33    34 ar  
    21    16    15 1   
    22    16    17 1   
    23    22    21 1   
    24     7     6 1   
    25    21    20 1   
    26    32    37 ar  
    27    13    19 1   
    28    34    35 ar  
    29    20    19 1   
    30    20    31 1   
    31    37    36 ar  
    32    19    24 1   
    33    35    36 ar  
    34    36    38 1   
    35    24    25 1   
    36    25    30 ar  
    37    25    26 ar  
    38    30    29 ar  
    39    26    27 ar  
    40    29    28 ar  
    41    38    40 1   
    42    38    39 1   
    43    27    28 ar  
    44     3    41 1   
    45     3    42 1   
    46     4    43 1   
    47     4    44 1   
    48     5    45 1   
    49     5    46 1   
    50     6    47 1   
    51     6    48 1   
    52     7    49 1   
    53     7    50 1   
    54    11    51 1   
    55    13    52 1   
    56    15    53 1   
    57    15    54 1   
    58    16    55 1   
    59    16    56 1   
    60    17    57 1   
    61    17    58 1   
    62    17    59 1   
    63    18    60 1   
    64    18    61 1   
    65    18    62 1   
    66    19    63 1   
    67    20    64 1   
    68    21    65 1   
    69    21    66 1   
    70    22    67 1   
    71    23    68 1   
    72    23    69 1   
    73    24    70 1   
    74    24    71 1   
    75    26    72 1   
    76    27    73 1   
    77    28    74 1   
    78    29    75 1   
    79    30    76 1   
    80    31    77 1   
    81    33    78 1   
    82    34    79 1   
    83    35    80 1   
    84    37    81 1   
    85    38    82 1   
    86    39    83 1   
    87    39    84 1   
    88    39    85 1   
    89    40    86 1   
    90    40    87 1   
    91    40    88 1   
@<TRIPOS>SUBSTRUCTURE
     1 0GO         1 TEMP              0 ****  ****    0 ROOT
