@<TRIPOS>MOLECULE
0GO
   90    93     1     0     0
SMALL
bcc


@<TRIPOS>ATOM
      1 N1           1.0970     1.9780    -2.3490 n3         1 0GO      -0.752600
      2 C2           2.1910     1.8990    -1.3740 c3         1 0GO       0.157200
      3 C3           2.8540     3.2960    -1.2780 c3         1 0GO      -0.077400
      4 C4           1.9780     4.2430    -2.0870 c3         1 0GO      -0.093400
      5 C5           0.8600     3.3840    -2.6880 c3         1 0GO       0.163800
      6 C6           1.8800     1.3200     0.0330 c3         1 0GO      -0.117400
      7 C7           2.4540    -0.1080     0.0670 c3         1 0GO       0.079000
      8 N8           3.2500    -0.2740    -1.1480 n          1 0GO      -0.492800
      9 C9           3.2300     0.8760    -1.9330 c          1 0GO       0.720500
     10 O10          3.9150     0.9710    -2.9750 o          1 0GO      -0.748500
     11 C11          4.3090    -1.2530    -1.1910 c3         1 0GO       0.058700
     12 C12          4.8310    -1.4740    -2.6230 c          1 0GO       0.550100
     13 N13          3.8050    -1.8370    -3.6640 ny         1 0GO      -0.671800
     14 O14          6.0030    -1.4260    -2.9580 o          1 0GO      -0.419100
     15 C15         -0.1070     1.2220    -2.0500 c3         1 0GO       0.167800
     16 C16         -1.0220     1.0560    -3.2670 c3         1 0GO      -0.077400
     17 C17         -2.2300     0.2360    -2.8950 c3         1 0GO      -0.102100
     18 C18          3.9250    -2.6160    -0.6140 c3         1 0GO      -0.129100
     19 C19          4.2520    -1.6980    -5.0980 c3         1 0GO       0.093500
     20 C20          4.0560    -0.2460    -5.6150 c3         1 0GO       0.121100
     21 C21          5.3460     0.5700    -5.3760 c3         1 0GO       0.106800
     22 N22          5.0980     2.0320    -5.4810 ny         1 0GO      -0.763000
     23 C23          6.3750     2.8320    -5.4540 c3         1 0GO       0.183100
     24 C24          3.5050    -2.7040    -5.9910 c3         1 0GO      -0.054100
     25 C25          3.6140    -4.0930    -5.4740 ca         1 0GO      -0.173300
     26 C26          2.5410    -4.6730    -4.7820 ca         1 0GO      -0.133500
     27 C27          2.6220    -5.9930    -4.3440 ca         1 0GO      -0.111000
     28 C28          3.7730    -6.7440    -4.5920 ca         1 0GO      -0.089000
     29 C29          4.8420    -6.1710    -5.2830 ca         1 0GO      -0.111000
     30 C30          4.7640    -4.8510    -5.7250 ca         1 0GO      -0.133500
     31 O31          3.8780    -0.2080    -7.0150 oh         1 0GO      -0.580800
     32 C32          7.1040     2.7590    -6.7480 ca         1 0GO      -0.193300
     33 C33          8.2120     1.9150    -6.8850 ca         1 0GO      -0.110000
     34 C34          8.9200     1.8990    -8.0850 ca         1 0GO      -0.114000
     35 C35          8.5260     2.7150    -9.1450 ca         1 0GO      -0.075000
     36 C36          7.4160     3.5630    -9.0180 ca         1 0GO      -0.047300
     37 C37          6.7090     3.5790    -7.8110 ca         1 0GO      -0.104000
     38 C38          7.0100     4.4460   -10.1570 c3         1 0GO      -0.036400
     39 C39          5.6030     4.1230   -10.6240 c3         1 0GO      -0.091600
     40 C40          7.1230     5.9100    -9.7760 c3         1 0GO      -0.091600
     41 H2           3.8930     3.2610    -1.6890 hc         1 0GO       0.066700
     42 H3           2.9200     3.6320    -0.2130 hc         1 0GO       0.066700
     43 H4           1.5480     5.0450    -1.4370 hc         1 0GO       0.067700
     44 H5           2.5670     4.7450    -2.8930 hc         1 0GO       0.067700
     45 H6           0.8550     3.4550    -3.8100 h1         1 0GO       0.060700
     46 H7          -0.1430     3.7380    -2.3190 h1         1 0GO       0.060700
     47 H8           2.3780     1.9400     0.8220 hc         1 0GO       0.093700
     48 H9           0.7870     1.3080     0.2660 hc         1 0GO       0.093700
     49 H10          1.6330    -0.8770     0.0640 h1         1 0GO       0.076200
     50 H11          3.0880    -0.2630     0.9830 h1         1 0GO       0.076200
     51 H12          5.2150    -0.8640    -0.6180 h1         1 0GO       0.120700
     52 H13          2.9720    -1.2520    -3.5170 hn         1 0GO       0.476300
     53 H14          0.2050     0.1980    -1.6940 h1         1 0GO       0.040200
     54 H15         -0.7130     1.7020    -1.2250 h1         1 0GO       0.040200
     55 H16         -1.3480     2.0640    -3.6370 hc         1 0GO       0.044700
     56 H17         -0.4650     0.5580    -4.1020 hc         1 0GO       0.044700
     57 H18         -1.9300    -0.7800    -2.5390 hc         1 0GO       0.048033
     58 H19         -2.8150     0.7330    -2.0840 hc         1 0GO       0.048033
     59 H20         -2.8970     0.1160    -3.7830 hc         1 0GO       0.048033
     60 H21          4.7830    -3.3230    -0.7330 hc         1 0GO       0.081033
     61 H22          3.0200    -3.0410    -1.1090 hc         1 0GO       0.081033
     62 H23          3.7090    -2.5140     0.4800 hc         1 0GO       0.081033
     63 H24          5.3550    -1.9620    -5.1260 hx         1 0GO       0.134700
     64 H25          3.1720     0.2360    -5.1010 h1         1 0GO       0.075700
     65 H26          5.7500     0.3580    -4.3460 hx         1 0GO       0.125700
     66 H27          6.1180     0.2900    -6.1550 hx         1 0GO       0.125700
     67 H28          4.6110     2.2180    -6.3690 hn         1 0GO       0.462300
     68 H30          6.0780     3.8980    -5.2290 hx         1 0GO       0.106700
     69 H31          7.0070     2.4420    -4.6050 hx         1 0GO       0.106700
     70 H32          2.4270    -2.4050    -6.0890 hc         1 0GO       0.092700
     71 H33          3.9730    -2.6420    -7.0140 hc         1 0GO       0.092700
     72 H34          1.6090    -4.1070    -4.6300 ha         1 0GO       0.136000
     73 H35          1.7680    -6.4520    -3.8190 ha         1 0GO       0.162500
     74 H36          3.8300    -7.7930    -4.2570 ha         1 0GO       0.167000
     75 H37          5.7450    -6.7680    -5.4950 ha         1 0GO       0.162500
     76 H38          5.6000    -4.4140    -6.2930 ha         1 0GO       0.136000
     77 H39          2.9960    -0.5470    -7.2280 ho         1 0GO       0.444000
     78 H40          8.5410     1.2850    -6.0450 ha         1 0GO       0.133000
     79 H41          9.8020     1.2470    -8.1930 ha         1 0GO       0.161000
     80 H42          9.0980     2.6990   -10.0890 ha         1 0GO       0.165000
     81 H43          5.8520     4.2620    -7.6990 ha         1 0GO       0.136000
     82 H44          7.7120     4.2590   -11.0220 hc         1 0GO       0.074700
     83 H45          4.8610     4.3180    -9.8130 hc         1 0GO       0.044033
     84 H46          5.3410     4.7640   -11.5020 hc         1 0GO       0.044033
     85 H47          5.5270     3.0530   -10.9310 hc         1 0GO       0.044033
     86 H48          8.1660     6.1530    -9.4580 hc         1 0GO       0.044033
     87 H49          6.8620     6.5500   -10.6540 hc         1 0GO       0.044033
     88 H50          6.4280     6.1590    -8.9390 hc         1 0GO       0.044033
     89 H132         3.5390    -2.8280    -3.5090 hn         1 0GO       0.476300
     90 H222         4.4950     2.3170    -4.6960 hn         1 0GO       0.462300
@<TRIPOS>BOND
     1     1     2 1   
     2     1     5 1   
     3     1    15 1   
     4     2     3 1   
     5     2     6 1   
     6     2     9 1   
     7     3     4 1   
     8     3    41 1   
     9     3    42 1   
    10     4     5 1   
    11     4    43 1   
    12     4    44 1   
    13     5    45 1   
    14     5    46 1   
    15     6     7 1   
    16     6    47 1   
    17     6    48 1   
    18     7     8 1   
    19     7    49 1   
    20     7    50 1   
    21     8     9 1   
    22     8    11 1   
    23     9    10 2   
    24    11    12 1   
    25    11    18 1   
    26    11    51 1   
    27    12    13 1   
    28    12    14 2   
    29    13    19 1   
    30    13    52 1   
    31    13    89 1   
    32    15    16 1   
    33    15    53 1   
    34    15    54 1   
    35    16    17 1   
    36    16    55 1   
    37    16    56 1   
    38    17    57 1   
    39    17    58 1   
    40    17    59 1   
    41    18    60 1   
    42    18    61 1   
    43    18    62 1   
    44    19    20 1   
    45    19    24 1   
    46    19    63 1   
    47    20    21 1   
    48    20    31 1   
    49    20    64 1   
    50    21    22 1   
    51    21    65 1   
    52    21    66 1   
    53    22    23 1   
    54    22    67 1   
    55    22    90 1   
    56    23    32 1   
    57    23    68 1   
    58    23    69 1   
    59    24    25 1   
    60    24    70 1   
    61    24    71 1   
    62    25    26 ar  
    63    25    30 ar  
    64    26    27 ar  
    65    26    72 1   
    66    27    28 ar  
    67    27    73 1   
    68    28    29 ar  
    69    28    74 1   
    70    29    30 ar  
    71    29    75 1   
    72    30    76 1   
    73    31    77 1   
    74    32    33 ar  
    75    32    37 ar  
    76    33    34 ar  
    77    33    78 1   
    78    34    35 ar  
    79    34    79 1   
    80    35    36 ar  
    81    35    80 1   
    82    36    37 ar  
    83    36    38 1   
    84    37    81 1   
    85    38    39 1   
    86    38    40 1   
    87    38    82 1   
    88    39    83 1   
    89    39    84 1   
    90    39    85 1   
    91    40    86 1   
    92    40    87 1   
    93    40    88 1   
@<TRIPOS>SUBSTRUCTURE
     1 0GO         1 TEMP              0 ****  ****    0 ROOT
