@<TRIPOS>MOLECULE
0GO
   88    91     1     0     0
SMALL
bcc


@<TRIPOS>ATOM
      1 N1           0.0000     0.0000     0.0000 n3         1 0GO      -0.512600
      2 C2           1.4670     0.0000     0.0000 c3         1 0GO       0.029200
      3 C3           1.9440     0.0000     1.4600 c3         1 0GO      -0.024400
      4 C4           0.7150     0.5640     2.2230 c3         1 0GO      -0.031400
      5 C5          -0.4620    -0.0280     1.4070 c3         1 0GO       0.147800
      6 C6           2.0150    -1.2320    -0.7430 c3         1 0GO      -0.087400
      7 C7           2.2860    -0.6520    -2.1500 c3         1 0GO       0.056000
      8 N8           2.4850     0.7890    -1.9480 n          1 0GO      -0.151800
      9 C9           2.0200     1.1830    -0.7480 c          1 0GO       0.670500
     10 O10          2.0440     2.3210    -0.3310 o          1 0GO      -0.645500
     11 C11          3.1090     1.6830    -2.9280 c3         1 0GO      -0.012300
     12 C12          4.3340     2.3160    -2.3220 c          1 0GO       0.557100
     13 N13          5.0740     3.1810    -3.0440 ns         1 0GO      -0.190900
     14 O14          4.6550     2.0470    -1.1830 o          1 0GO      -0.613100
     15 C15         -0.5270    -1.1470    -0.7500 c3         1 0GO       0.123800
     16 C16         -2.0360    -0.9810    -0.9410 c3         1 0GO      -0.033400
     17 C17         -2.5860    -2.1760    -1.7220 c3         1 0GO       0.006900
     18 C18          2.1140     2.7750    -3.3270 c3         1 0GO      -0.016100
     19 C19          6.2650     3.7960    -2.4540 c3         1 0GO       0.011700
     20 C20          6.5540     5.1240    -3.1560 c3         1 0GO       0.180100
     21 C21          7.7220     5.8260    -2.4610 c3         1 0GO       0.112800
     22 N22          7.9210     7.1530    -3.0570 n7         1 0GO      -0.578200
     23 C23          9.0380     7.8580    -2.4120 c3         1 0GO       0.205100
     24 C24          7.4620     2.8580    -2.6260 c3         1 0GO       0.008900
     25 C25          7.2290     1.5980    -1.8310 ca         1 0GO      -0.072300
     26 C26          7.6470     1.5220    -0.5160 ca         1 0GO      -0.092500
     27 C27          7.4330     0.3670     0.2120 ca         1 0GO      -0.093000
     28 C28          6.8030    -0.7140    -0.3760 ca         1 0GO      -0.102000
     29 C29          6.3850    -0.6390    -1.6920 ca         1 0GO      -0.093000
     30 C30          6.5950     0.5190    -2.4180 ca         1 0GO      -0.092500
     31 O31          6.8930     4.8770    -4.5230 oh         1 0GO      -0.578800
     32 C32          9.2120     9.2120    -3.0500 ca         1 0GO      -0.097300
     33 C33         10.0460     9.3590    -4.1430 ca         1 0GO      -0.081000
     34 C34         10.2060    10.6010    -4.7270 ca         1 0GO      -0.101000
     35 C35          9.5330    11.6960    -4.2210 ca         1 0GO      -0.097000
     36 C36          8.6970    11.5480    -3.1290 ca         1 0GO      -0.084300
     37 C37          8.5330    10.3060    -2.5460 ca         1 0GO      -0.094000
     38 C38          7.9620    12.7420    -2.5760 c3         1 0GO       0.004600
     39 C39          8.9710    13.8010    -2.1290 c3         1 0GO       0.005900
     40 C40          7.0540    13.3290    -3.6600 c3         1 0GO       0.005900
     41 H2           2.1680    -1.0080     1.7890 hc         1 0GO       0.032200
     42 H3           2.8010     0.6510     1.5820 hc         1 0GO       0.032200
     43 H4           0.7030     1.6470     2.1870 hc         1 0GO       0.029700
     44 H5           0.6960     0.2030     3.2440 hc         1 0GO       0.029700
     45 H6          -0.6600    -1.0460     1.7170 h1         1 0GO       0.014200
     46 H7          -1.3470     0.5870     1.5230 h1         1 0GO       0.014200
     47 H8           1.2710    -2.0180    -0.7860 hc         1 0GO       0.048700
     48 H9           2.9330    -1.5800    -0.2860 hc         1 0GO       0.048700
     49 H10          3.1800    -1.0970    -2.5710 h1         1 0GO       0.015200
     50 H11          1.4340    -0.8250    -2.7960 h1         1 0GO       0.015200
     51 H12          3.3920     1.1150    -3.8060 h1         1 0GO       0.035700
     52 H13          4.8200     3.3870    -3.9900 hn         1 0GO       0.175500
     53 H14         -0.3310    -2.0590    -0.1990 h1         1 0GO       0.019700
     54 H15         -0.0440    -1.1990    -1.7180 h1         1 0GO       0.019700
     55 H16         -2.2320    -0.0690    -1.4910 hc         1 0GO       0.021200
     56 H17         -2.5190    -0.9300     0.0280 hc         1 0GO       0.021200
     57 H18         -2.3270    -3.0940    -1.2080 hc         1 0GO       0.000033
     58 H19         -3.6640    -2.0950    -1.7950 hc         1 0GO       0.000033
     59 H20         -2.1560    -2.1860    -2.7170 hc         1 0GO       0.000033
     60 H21          1.1030     2.4060    -3.2020 hc         1 0GO       0.018700
     61 H22          2.2620     3.6450    -2.6990 hc         1 0GO       0.018700
     62 H23          2.2730     3.0470    -4.3640 hc         1 0GO       0.018700
     63 H24          6.0950     3.9740    -1.3990 h1         1 0GO       0.067700
     64 H25          5.6750     5.7550    -3.1110 h1         1 0GO       0.004700
     65 H26          8.6220     5.2360    -2.5830 h1         1 0GO       0.023200
     66 H27          7.5010     5.9340    -1.4060 h1         1 0GO       0.023200
     67 H28          7.0840     7.6930    -2.9580 hn         1 0GO       0.250800
     68 H30          9.9470     7.2820    -2.5340 h1         1 0GO       0.010700
     69 H31          8.8260     7.9810    -1.3570 h1         1 0GO       0.010700
     70 H32          7.5780     2.6080    -3.6730 hc         1 0GO       0.033200
     71 H33          8.3590     3.3480    -2.2700 hc         1 0GO       0.033200
     72 H34          8.1400     2.3690    -0.0560 ha         1 0GO       0.098000
     73 H35          7.7600     0.3080     1.2430 ha         1 0GO       0.095500
     74 H36          6.6380    -1.6200     0.1940 ha         1 0GO       0.096000
     75 H37          5.8900    -1.4850    -2.1530 ha         1 0GO       0.095500
     76 H38          6.2680     0.5780    -3.4490 ha         1 0GO       0.098000
     77 H39          6.4270     5.4810    -5.0760 ho         1 0GO       0.394000
     78 H40         10.5750     8.5010    -4.5400 ha         1 0GO       0.109000
     79 H41         10.8610    10.7160    -5.5830 ha         1 0GO       0.102000
     80 H42          9.6590    12.6700    -4.6780 ha         1 0GO       0.109000
     81 H43          7.8780    10.1900    -1.6910 ha         1 0GO       0.106000
     82 H44          7.3600    12.4360    -1.7290 hc         1 0GO       0.026700
     83 H45          8.4670    14.5530    -1.5350 hc         1 0GO       0.004700
     84 H46          9.4160    14.2670    -3.0000 hc         1 0GO       0.004700
     85 H47          9.7470    13.3320    -1.5350 hc         1 0GO       0.004700
     86 H48          6.4940    12.5310    -4.1320 hc         1 0GO       0.004700
     87 H49          6.3670    14.0370    -3.2120 hc         1 0GO       0.004700
     88 H50          7.6590    13.8340    -4.4030 hc         1 0GO       0.004700
@<TRIPOS>BOND
     1     1     2 1   
     2     1     5 1   
     3     1    15 1   
     4     2     3 1   
     5     2     6 1   
     6     2     9 1   
     7     3     4 1   
     8     3    41 1   
     9     3    42 1   
    10     4     5 1   
    11     4    43 1   
    12     4    44 1   
    13     5    45 1   
    14     5    46 1   
    15     6     7 1   
    16     6    47 1   
    17     6    48 1   
    18     7     8 1   
    19     7    49 1   
    20     7    50 1   
    21     8     9 1   
    22     8    11 1   
    23     9    10 2   
    24    11    12 1   
    25    11    18 1   
    26    11    51 1   
    27    12    13 1   
    28    12    14 2   
    29    13    19 1   
    30    13    52 1   
    31    15    16 1   
    32    15    53 1   
    33    15    54 1   
    34    16    17 1   
    35    16    55 1   
    36    16    56 1   
    37    17    57 1   
    38    17    58 1   
    39    17    59 1   
    40    18    60 1   
    41    18    61 1   
    42    18    62 1   
    43    19    20 1   
    44    19    24 1   
    45    19    63 1   
    46    20    21 1   
    47    20    31 1   
    48    20    64 1   
    49    21    22 1   
    50    21    65 1   
    51    21    66 1   
    52    22    23 1   
    53    22    67 1   
    54    23    32 1   
    55    23    68 1   
    56    23    69 1   
    57    24    25 1   
    58    24    70 1   
    59    24    71 1   
    60    25    26 ar  
    61    25    30 ar  
    62    26    27 ar  
    63    26    72 1   
    64    27    28 ar  
    65    27    73 1   
    66    28    29 ar  
    67    28    74 1   
    68    29    30 ar  
    69    29    75 1   
    70    30    76 1   
    71    31    77 1   
    72    32    33 ar  
    73    32    37 ar  
    74    33    34 ar  
    75    33    78 1   
    76    34    35 ar  
    77    34    79 1   
    78    35    36 ar  
    79    35    80 1   
    80    36    37 ar  
    81    36    38 1   
    82    37    81 1   
    83    38    39 1   
    84    38    40 1   
    85    38    82 1   
    86    39    83 1   
    87    39    84 1   
    88    39    85 1   
    89    40    86 1   
    90    40    87 1   
    91    40    88 1   
@<TRIPOS>SUBSTRUCTURE
     1 0GO         1 TEMP              0 ****  ****    0 ROOT
