@<TRIPOS>MOLECULE
0GS
   55    57     1     0     0
SMALL
bcc


@<TRIPOS>ATOM
      1 Br1          0.0000     0.0000     0.0000 br         1 0GS      -0.105100
      2 C2           1.8910     0.0000     0.0000 ca         1 0GS       0.042100
      3 C3           2.5860     0.0000     1.2020 ca         1 0GS       0.023600
      4 C4           3.9760    -0.0010     1.1980 ca         1 0GS       0.103900
      5 C5           4.6620    -0.0010    -0.0040 ca         1 0GS      -0.133000
      6 C7           3.9660    -0.0010    -1.1990 ca         1 0GS      -0.068300
      7 C8           2.5830    -0.0050    -1.1970 ca         1 0GS      -0.085000
      8 C10          4.7150    -0.0010    -2.5050 c3         1 0GS       0.030900
      9 C13          4.9700    -1.4440    -2.9480 c3         1 0GS      -0.041700
     10 C15          5.6130    -1.4440    -4.3310 c3         1 0GS       0.174100
     11 C17          5.6490    -2.8570    -4.9070 c3         1 0GS       0.124500
     12 C19          6.6570    -3.7110    -4.1340 c3         1 0GS      -0.006600
     13 S22          6.0990    -3.8710    -2.4130 s6         1 0GS       0.791000
     14 C23          5.8970    -2.1280    -1.9410 c3         1 0GS      -0.022600
     15 O26          7.1530    -4.4330    -1.6430 o          1 0GS      -0.579300
     16 O27          4.8220    -4.4960    -2.4050 o          1 0GS      -0.579300
     17 N28          6.0480    -2.7970    -6.3200 n7         1 0GS      -0.590200
     18 C30          5.5470    -3.9650    -7.0570 c3         1 0GS       0.203100
     19 C33          5.9730    -3.8690    -8.4990 ca         1 0GS      -0.102300
     20 C34          7.1760    -4.4190    -8.9030 ca         1 0GS      -0.041000
     21 C36          7.5670    -4.3310   -10.2260 ca         1 0GS      -0.175300
     22 C37          6.7550    -3.6920   -11.1450 ca         1 0GS      -0.061000
     23 C39          5.5540    -3.1420   -10.7420 ca         1 0GS      -0.104000
     24 C41          5.1600    -3.2350    -9.4210 ca         1 0GS      -0.077000
     25 C43          8.8770    -4.9300   -10.6660 c3         1 0GS       0.439900
     26 F44          9.1800    -6.0330    -9.8590 f          1 0GS      -0.221300
     27 F45          8.7790    -5.3400   -11.9990 f          1 0GS      -0.221300
     28 C46          9.9860    -3.8840   -10.5340 c3         1 0GS      -0.042100
     29 O50          4.8570    -0.6010    -5.2020 oh         1 0GS      -0.581800
     30 F52          4.6570     0.0000     2.3640 f          1 0GS      -0.119900
     31 N53          1.8890     0.0000     2.4150 nv         1 0GS      -0.544200
     32 H1           5.7450     0.0010    -0.0090 ha         1 0GS       0.124000
     33 H2           2.0420    -0.0050    -2.1350 ha         1 0GS       0.125000
     34 H3           4.1280     0.5090    -3.2590 hc         1 0GS       0.029700
     35 H4           5.6620     0.5090    -2.3790 hc         1 0GS       0.029700
     36 H5           4.0300    -1.9820    -2.9910 hc         1 0GS       0.065700
     37 H6           6.6250    -1.0670    -4.2520 h1         1 0GS       0.014700
     38 H7           4.6650    -3.3020    -4.8250 h1         1 0GS       0.045700
     39 H8           6.7210    -4.6930    -4.5860 h1         1 0GS       0.078700
     40 H9           7.6290    -3.2320    -4.1550 h1         1 0GS       0.078700
     41 H10          6.8630    -1.6380    -1.9480 h1         1 0GS       0.080200
     42 H11          5.4620    -2.0690    -0.9510 h1         1 0GS       0.080200
     43 H12          5.6850    -1.9610    -6.7340 hn         1 0GS       0.273800
     44 H14          4.4650    -3.9910    -7.0020 h1         1 0GS       0.016700
     45 H15          5.9530    -4.8700    -6.6200 h1         1 0GS       0.016700
     46 H16          7.8120    -4.9190    -8.1830 ha         1 0GS       0.121000
     47 H17          7.0620    -3.6210   -12.1820 ha         1 0GS       0.116000
     48 H18          4.9170    -2.6440   -11.4630 ha         1 0GS       0.108000
     49 H19          4.2180    -2.8040    -9.1050 ha         1 0GS       0.106000
     50 H20         10.9240    -4.3090   -10.8700 hc         1 0GS       0.029700
     51 H21         10.0770    -3.5830    -9.4980 hc         1 0GS       0.029700
     52 H22          9.7420    -3.0210   -11.1420 hc         1 0GS       0.029700
     53 H23          5.4000     0.1090    -5.5020 ho         1 0GS       0.400000
     54 H24          1.6320    -0.8660     2.8450 hn         1 0GS       0.282800
     55 H25          1.6330     0.8670     2.8440 hn         1 0GS       0.282800
@<TRIPOS>BOND
     1     1     2 1   
     2     2     3 ar  
     3     2     7 ar  
     4     3     4 ar  
     5     3    31 1   
     6     4     5 ar  
     7     4    30 1   
     8     5     6 ar  
     9     5    32 1   
    10     6     7 ar  
    11     6     8 1   
    12     7    33 1   
    13     8     9 1   
    14     8    34 1   
    15     8    35 1   
    16     9    10 1   
    17     9    14 1   
    18     9    36 1   
    19    10    11 1   
    20    10    29 1   
    21    10    37 1   
    22    11    12 1   
    23    11    17 1   
    24    11    38 1   
    25    12    13 1   
    26    12    39 1   
    27    12    40 1   
    28    13    14 1   
    29    13    15 2   
    30    13    16 2   
    31    14    41 1   
    32    14    42 1   
    33    17    18 1   
    34    17    43 1   
    35    18    19 1   
    36    18    44 1   
    37    18    45 1   
    38    19    20 ar  
    39    19    24 ar  
    40    20    21 ar  
    41    20    46 1   
    42    21    22 ar  
    43    21    25 1   
    44    22    23 ar  
    45    22    47 1   
    46    23    24 ar  
    47    23    48 1   
    48    24    49 1   
    49    25    26 1   
    50    25    27 1   
    51    25    28 1   
    52    28    50 1   
    53    28    51 1   
    54    28    52 1   
    55    29    53 1   
    56    31    54 1   
    57    31    55 1   
@<TRIPOS>SUBSTRUCTURE
     1 0GS         1 TEMP              0 ****  ****    0 ROOT
