@<TRIPOS>MOLECULE
molecule
   55    57     1     0     0
SMALL
bcc


@<TRIPOS>ATOM
      1 Br1          0.0000     0.0000     0.0000 br         1 0GS      -0.074100
      2 C2           1.8910     0.0000     0.0000 ca         1 0GS      -0.009900
      3 C3           2.5860     0.0000     1.2020 ca         1 0GS       0.150600
      4 C4           3.9760    -0.0010     1.1980 ca         1 0GS       0.124900
      5 C5           4.6620    -0.0010    -0.0040 ca         1 0GS      -0.162000
      6 C7           3.9660    -0.0010    -1.1990 ca         1 0GS      -0.068300
      7 C8           2.5830    -0.0050    -1.1970 ca         1 0GS      -0.110000
      8 C10          4.7150    -0.0010    -2.5050 c3         1 0GS      -0.022100
      9 C13          4.9700    -1.4440    -2.9480 c3         1 0GS      -0.061700
     10 C15          5.6130    -1.4440    -4.3310 c3         1 0GS       0.132100
     11 C17          5.6490    -2.8570    -4.9070 c3         1 0GS       0.174500
     12 C19          6.6570    -3.7110    -4.1340 c3         1 0GS      -0.194600
     13 S22          6.0990    -3.8710    -2.4130 s6         1 0GS       1.095000
     14 C23          5.8970    -2.1280    -1.9410 c3         1 0GS      -0.205600
     15 O26          7.1530    -4.4330    -1.6430 o          1 0GS      -0.607300
     16 O27          4.8220    -4.4960    -2.4050 o          1 0GS      -0.607300
     17 N28          6.0480    -2.7970    -6.3200 n7         1 0GS      -0.809200
     18 C30          5.5470    -3.9650    -7.0570 c3         1 0GS       0.205100
     19 C33          5.9730    -3.8690    -8.4990 ca         1 0GS      -0.092300
     20 C34          7.1760    -4.4190    -8.9030 ca         1 0GS      -0.075000
     21 C36          7.5670    -4.3310   -10.2260 ca         1 0GS      -0.156300
     22 C37          6.7550    -3.6920   -11.1450 ca         1 0GS      -0.094000
     23 C39          5.5540    -3.1420   -10.7420 ca         1 0GS      -0.132000
     24 C41          5.1600    -3.2350    -9.4210 ca         1 0GS      -0.108000
     25 C43          8.8770    -4.9300   -10.6660 c3         1 0GS       0.456900
     26 F44          9.1800    -6.0330    -9.8590 f          1 0GS      -0.235800
     27 F45          8.7790    -5.3400   -11.9990 f          1 0GS      -0.235800
     28 C46          9.9860    -3.8840   -10.5340 c3         1 0GS      -0.130100
     29 O50          4.8570    -0.6010    -5.2020 oh         1 0GS      -0.599800
     30 F52          4.6570     0.0000     2.3640 f          1 0GS      -0.127900
     31 N53          1.8890     0.0000     2.4150 nv         1 0GS      -0.976200
     32 H1           5.7450     0.0010    -0.0090 ha         1 0GS       0.148000
     33 H2           2.0420    -0.0050    -2.1350 ha         1 0GS       0.152000
     34 H3           4.1280     0.5090    -3.2590 hc         1 0GS       0.061200
     35 H4           5.6620     0.5090    -2.3790 hc         1 0GS       0.061200
     36 H5           4.0300    -1.9820    -2.9910 hc         1 0GS       0.088700
     37 H6           6.6250    -1.0670    -4.2520 h1         1 0GS       0.048700
     38 H7           4.6650    -3.3020    -4.8250 h1         1 0GS       0.059700
     39 H8           6.7210    -4.6930    -4.5860 h1         1 0GS       0.110700
     40 H9           7.6290    -3.2320    -4.1550 h1         1 0GS       0.110700
     41 H10          6.8630    -1.6380    -1.9480 h1         1 0GS       0.108700
     42 H11          5.4620    -2.0690    -0.9510 h1         1 0GS       0.108700
     43 H12          5.6850    -1.9610    -6.7340 hn         1 0GS       0.370800
     44 H14          4.4650    -3.9910    -7.0020 h1         1 0GS       0.045200
     45 H15          5.9530    -4.8700    -6.6200 h1         1 0GS       0.045200
     46 H16          7.8120    -4.9190    -8.1830 ha         1 0GS       0.148000
     47 H17          7.0620    -3.6210   -12.1820 ha         1 0GS       0.144000
     48 H18          4.9170    -2.6440   -11.4630 ha         1 0GS       0.136000
     49 H19          4.2180    -2.8040    -9.1050 ha         1 0GS       0.133000
     50 H20         10.9240    -4.3090   -10.8700 hc         1 0GS       0.061700
     51 H21         10.0770    -3.5830    -9.4980 hc         1 0GS       0.061700
     52 H22          9.7420    -3.0210   -11.1420 hc         1 0GS       0.061700
     53 H23          5.4000     0.1090    -5.5020 ho         1 0GS       0.413000
     54 H24          1.6320    -0.8660     2.8450 hn         1 0GS       0.439300
     55 H25          1.6330     0.8670     2.8440 hn         1 0GS       0.439300
@<TRIPOS>BOND
     1    15    13 2
     2    12    13 1
     3    12    11 1
     4    18    17 1
     5    18    19 1
     6    13    16 2
     7    13    14 1
     8    17    11 1
     9    24    19 ar
    10    24    23 ar
    11    11    10 1
    12    19    20 ar
    13    14     9 1
    14    23    22 ar
    15    10     9 1
    16    10    29 1
    17    20    21 ar
    18     9     8 1
    19    22    21 ar
    20     1     2 1
    21    21    25 1
    22     7     2 ar
    23     7     6 ar
    24     8     6 1
    25     2     3 ar
    26     6     5 ar
    27     3    31 1
    28     3     4 ar
    29     5     4 ar
    30    25    26 1
    31    25    28 1
    32    25    27 1
    33     4    30 1
    34     5    32 1
    35     7    33 1
    36     8    34 1
    37     8    35 1
    38     9    36 1
    39    10    37 1
    40    11    38 1
    41    12    39 1
    42    12    40 1
    43    14    41 1
    44    14    42 1
    45    17    43 1
    46    18    44 1
    47    18    45 1
    48    20    46 1
    49    22    47 1
    50    23    48 1
    51    24    49 1
    52    28    50 1
    53    28    51 1
    54    28    52 1
    55    29    53 1
    56    31    54 1
    57    31    55 1
@<TRIPOS>SUBSTRUCTURE
     1 0GS         1 TEMP              0 ****  ****    0 ROOT
