@<TRIPOS>MOLECULE
0GS
   56    58     1     0     0
SMALL
bcc


@<TRIPOS>ATOM
      1 Br1          0.1410     0.5650     0.4170 br         1 0GS      -0.061100
      2 C2           1.9810     0.3530     0.1440 ca         1 0GS      -0.111900
      3 C3           2.8630     0.1610     1.2400 ca         1 0GS       0.217600
      4 C4           4.2590    -0.0120     0.9310 ca         1 0GS       0.043900
      5 C5           4.7170     0.0280    -0.3850 ca         1 0GS      -0.097000
      6 C7           3.8210     0.2350    -1.4400 ca         1 0GS      -0.164300
      7 C8           2.4630     0.3870    -1.1640 ca         1 0GS      -0.057000
      8 C10          4.3170     0.2540    -2.8420 c3         1 0GS      -0.014100
      9 C13          5.0440     1.5570    -3.1730 c3         1 0GS      -0.053700
     10 C15          5.6350     1.5060    -4.5910 c3         1 0GS       0.126100
     11 C17          6.4230     2.8240    -4.8560 c3         1 0GS       0.151500
     12 C19          5.4540     3.9860    -4.8550 c3         1 0GS      -0.328600
     13 S22          4.7940     4.2610    -3.2540 s6         1 0GS       1.345000
     14 C23          4.0980     2.7360    -3.0440 c3         1 0GS      -0.354600
     15 O26          3.8210     5.2420    -3.3680 o          1 0GS      -0.618300
     16 O27          5.8900     4.4500    -2.4140 o          1 0GS      -0.618300
     17 N28          7.2280     2.7410    -6.1240 ny         1 0GS      -0.760000
     18 C30          8.3710     3.7150    -6.1590 c3         1 0GS       0.178100
     19 C33          9.5000     3.2810    -5.2880 ca         1 0GS      -0.185300
     20 C34         10.3980     2.3160    -5.7580 ca         1 0GS      -0.078000
     21 C36         11.4660     1.9150    -4.9570 ca         1 0GS      -0.142300
     22 C37         11.6430     2.4790    -3.6890 ca         1 0GS      -0.054000
     23 C39         10.7520     3.4490    -3.2270 ca         1 0GS      -0.118000
     24 C41          9.6780     3.8500    -4.0210 ca         1 0GS      -0.083000
     25 C43         12.4620     0.8700    -5.4610 c3         1 0GS       0.459900
     26 F44         11.9280     0.1010    -6.4820 f          1 0GS      -0.232300
     27 F45         12.7130    -0.0930    -4.5000 f          1 0GS      -0.232300
     28 C46         13.7580     1.5770    -5.9070 c3         1 0GS      -0.137100
     29 O50          6.5850     0.4660    -4.7500 oh         1 0GS      -0.623800
     30 F52          5.1460    -0.2200     1.9380 f          1 0GS      -0.133900
     31 N53          2.4360     0.1830     2.5410 nv         1 0GS      -0.846200
     32 H1           5.7910    -0.1140    -0.5820 ha         1 0GS       0.148000
     33 H2           1.7540     0.5290    -1.9970 ha         1 0GS       0.146000
     34 H3           5.0230    -0.6110    -2.9770 hc         1 0GS       0.054700
     35 H4           3.4640     0.1140    -3.5580 hc         1 0GS       0.054700
     36 H5           5.8900     1.6790    -2.4350 hc         1 0GS       0.095700
     37 H6           4.8110     1.3830    -5.3500 h1         1 0GS       0.060700
     38 H7           7.1840     2.9540    -4.0180 hx         1 0GS       0.143700
     39 H8           4.6240     3.8160    -5.5900 h1         1 0GS       0.124200
     40 H9           5.9590     4.9340    -5.1820 h1         1 0GS       0.124200
     41 H10          3.2260     2.5800    -3.7390 h1         1 0GS       0.148700
     42 H11          3.6300     2.6610    -2.0130 h1         1 0GS       0.148700
     43 H12          6.6110     2.9100    -6.9230 hn         1 0GS       0.459800
     44 H14          7.9840     4.7250    -5.8410 hx         1 0GS       0.105700
     45 H15          8.7110     3.7780    -7.2350 hx         1 0GS       0.105700
     46 H16         10.2710     1.8690    -6.7570 ha         1 0GS       0.149000
     47 H17         12.4840     2.1470    -3.0560 ha         1 0GS       0.169000
     48 H18         10.8940     3.8970    -2.2300 ha         1 0GS       0.166000
     49 H19          8.9800     4.6170    -3.6470 ha         1 0GS       0.153000
     50 H20         13.5280     2.2840    -6.7360 hc         1 0GS       0.073367
     51 H21         14.1890     2.1320    -5.0420 hc         1 0GS       0.073367
     52 H22         14.4930     0.8160    -6.2610 hc         1 0GS       0.073367
     53 H23          6.1560    -0.3740    -4.5390 ho         1 0GS       0.453000
     54 H24          3.0730    -0.0880     3.2510 hn         1 0GS       0.446300
     55 H25          1.4650     0.1440     2.7390 hn         1 0GS       0.446300
     56 H282         7.6090     1.7820    -6.1880 hn         1 0GS       0.459800
@<TRIPOS>BOND
     1     1     2 1   
     2     2     3 ar  
     3     2     7 ar  
     4     3     4 ar  
     5     3    31 1   
     6     4     5 ar  
     7     4    30 1   
     8     5     6 ar  
     9     5    32 1   
    10     6     7 ar  
    11     6     8 1   
    12     7    33 1   
    13     8     9 1   
    14     8    34 1   
    15     8    35 1   
    16     9    10 1   
    17     9    14 1   
    18     9    36 1   
    19    10    11 1   
    20    10    29 1   
    21    10    37 1   
    22    11    12 1   
    23    11    17 1   
    24    11    38 1   
    25    12    13 1   
    26    12    39 1   
    27    12    40 1   
    28    13    14 1   
    29    13    15 2   
    30    13    16 2   
    31    14    41 1   
    32    14    42 1   
    33    17    18 1   
    34    17    43 1   
    35    17    56 1   
    36    18    19 1   
    37    18    44 1   
    38    18    45 1   
    39    19    20 ar  
    40    19    24 ar  
    41    20    21 ar  
    42    20    46 1   
    43    21    22 ar  
    44    21    25 1   
    45    22    23 ar  
    46    22    47 1   
    47    23    24 ar  
    48    23    48 1   
    49    24    49 1   
    50    25    26 1   
    51    25    27 1   
    52    25    28 1   
    53    28    50 1   
    54    28    51 1   
    55    28    52 1   
    56    29    53 1   
    57    31    54 1   
    58    31    55 1   
@<TRIPOS>SUBSTRUCTURE
     1 0GS         1 TEMP              0 ****  ****    0 ROOT
