@<TRIPOS>MOLECULE
0GT
   69    72     1     0     0
SMALL
bcc


@<TRIPOS>ATOM
      1 F1           0.0000     0.0000     0.0000 f          1 0GT      -0.227800
      2 C2           1.3990     0.0000     0.0000 c3         1 0GT       0.389900
      3 F4           1.8650     0.0000     1.3200 f          1 0GT      -0.227800
      4 C5           1.9090    -1.2490    -0.7210 c3         1 0GT       0.021800
      5 C8           1.5110    -1.1900    -2.1730 cc         1 0GT      -0.171400
      6 C9           0.4200    -1.7430    -2.7260 cd         1 0GT      -0.236100
      7 N11          0.3920    -1.4790    -4.0680 na         1 0GT       0.364600
      8 C13          1.4920    -0.7290    -4.4210 ca         1 0GT      -0.226200
      9 C14          2.2380    -0.5100    -3.2480 ca         1 0GT      -0.089800
     10 C15          3.4170     0.2360    -3.3030 ca         1 0GT      -0.055000
     11 C17          3.8390     0.7510    -4.4960 ca         1 0GT      -0.120300
     12 C18          3.1040     0.5400    -5.6540 ca         1 0GT      -0.080000
     13 C20          1.9430    -0.2000    -5.6250 ca         1 0GT      -0.088000
     14 C22          5.1120     1.5550    -4.5540 c3         1 0GT       0.038900
     15 C25          6.2930     0.6210    -4.8290 c3         1 0GT      -0.063700
     16 C27          7.5610     1.4500    -5.0160 c3         1 0GT       0.169100
     17 C29          8.7010     0.5780    -5.5360 c3         1 0GT       0.106500
     18 C31          9.1610    -0.3880    -4.4420 c3         1 0GT      -0.003600
     19 S34          7.7960    -1.5150    -4.0370 s6         1 0GT       0.788000
     20 C35          6.4680    -0.3390    -3.6500 c3         1 0GT      -0.017600
     21 O38          7.4400    -2.2380    -5.2070 o          1 0GT      -0.583300
     22 O39          8.1310    -2.2300    -2.8540 o          1 0GT      -0.583300
     23 N40          9.8260     1.4350    -5.9330 n7         1 0GT      -0.583200
     24 C42         10.6630     0.7710    -6.9420 c3         1 0GT       0.202100
     25 C45         11.8050     1.6770    -7.3240 ca         1 0GT      -0.096300
     26 C46         12.9980     1.6140    -6.6290 ca         1 0GT      -0.077000
     27 C48         14.0460     2.4460    -6.9790 ca         1 0GT      -0.076300
     28 C49         13.8990     3.3400    -8.0230 ca         1 0GT      -0.110000
     29 C51         12.7060     3.4030    -8.7170 ca         1 0GT      -0.096000
     30 C53         11.6600     2.5670    -8.3710 ca         1 0GT      -0.101000
     31 C55         15.3470     2.3780    -6.2210 c3         1 0GT      -0.013700
     32 C56         15.9350     0.9710    -6.3440 c3         1 0GT       0.005233
     33 C60         16.3300     3.3940    -6.8050 c3         1 0GT       0.005233
     34 C64         15.0960     2.6990    -4.7470 c3         1 0GT       0.005233
     35 O68          7.3050     2.4990    -5.9520 oh         1 0GT      -0.577800
     36 H1           1.7610     0.8850    -0.5110 h2         1 0GT       0.033700
     37 H2           2.9890    -1.2950    -0.6440 hc         1 0GT       0.038200
     38 H3           1.4770    -2.1310    -0.2640 hc         1 0GT       0.038200
     39 H4          -0.3270    -2.3150    -2.1890 h4         1 0GT       0.147000
     40 H5          -0.3220    -1.7850    -4.7000 hn         1 0GT       0.117700
     41 H6           3.9960     0.4040    -2.4030 ha         1 0GT       0.106000
     42 H7           3.4520     0.9550    -6.5930 ha         1 0GT       0.103000
     43 H8           1.3760    -0.3590    -6.5350 ha         1 0GT       0.102000
     44 H9           5.2630     2.0600    -3.6070 hc         1 0GT       0.028200
     45 H10          5.0400     2.2890    -5.3470 hc         1 0GT       0.028200
     46 H11          6.1030     0.0500    -5.7290 hc         1 0GT       0.053700
     47 H12          7.8480     1.8780    -4.0630 h1         1 0GT       0.053700
     48 H13          8.3550     0.0110    -6.3920 h1         1 0GT       0.032700
     49 H14          9.4410     0.1730    -3.5580 h1         1 0GT       0.079700
     50 H15         10.0090    -0.9600    -4.7980 h1         1 0GT       0.079700
     51 H16          5.5430    -0.8790    -3.4840 h1         1 0GT       0.083200
     52 H17          6.7300     0.2230    -2.7610 h1         1 0GT       0.083200
     53 H18          9.4760     2.2960    -6.3040 hn         1 0GT       0.282800
     54 H20         10.0660     0.5530    -7.8190 h1         1 0GT       0.010700
     55 H21         11.0560    -0.1530    -6.5340 h1         1 0GT       0.010700
     56 H22         13.1120     0.9140    -5.8110 ha         1 0GT       0.114000
     57 H23         14.7190     3.9930    -8.2960 ha         1 0GT       0.119000
     58 H24         12.5930     4.1020    -9.5370 ha         1 0GT       0.102000
     59 H25         10.7250     2.6160    -8.9150 ha         1 0GT       0.101000
     60 H26         15.3050     0.2690    -5.8110 hc         1 0GT       0.007478
     61 H27         16.9310     0.9580    -5.9180 hc         1 0GT       0.007478
     62 H28         15.9850     0.6900    -7.3890 hc         1 0GT       0.007478
     63 H29         15.9200     4.3920    -6.7050 hc         1 0GT       0.007478
     64 H30         16.4960     3.1750    -7.8530 hc         1 0GT       0.007478
     65 H31         17.2710     3.3350    -6.2710 hc         1 0GT       0.007478
     66 H32         14.6190     1.8520    -4.2690 hc         1 0GT       0.007478
     67 H33         16.0390     2.9080    -4.2570 hc         1 0GT       0.007478
     68 H34         14.4500     3.5660    -4.6710 hc         1 0GT       0.007478
     69 H35          6.8840     2.1420    -6.7170 ho         1 0GT       0.395000
@<TRIPOS>BOND
     1     1     2 1   
     2     2     3 1   
     3     2     4 1   
     4     2    36 1   
     5     4     5 1   
     6     4    37 1   
     7     4    38 1   
     8     5     6 2   
     9     5     9 1   
    10     6     7 1   
    11     6    39 1   
    12     7     8 1   
    13     7    40 1   
    14     8     9 ar  
    15     8    13 ar  
    16     9    10 ar  
    17    10    11 ar  
    18    10    41 1   
    19    11    12 ar  
    20    11    14 1   
    21    12    13 ar  
    22    12    42 1   
    23    13    43 1   
    24    14    15 1   
    25    14    44 1   
    26    14    45 1   
    27    15    16 1   
    28    15    20 1   
    29    15    46 1   
    30    16    17 1   
    31    16    35 1   
    32    16    47 1   
    33    17    18 1   
    34    17    23 1   
    35    17    48 1   
    36    18    19 1   
    37    18    49 1   
    38    18    50 1   
    39    19    20 1   
    40    19    21 2   
    41    19    22 2   
    42    20    51 1   
    43    20    52 1   
    44    23    24 1   
    45    23    53 1   
    46    24    25 1   
    47    24    54 1   
    48    24    55 1   
    49    25    26 ar  
    50    25    30 ar  
    51    26    27 ar  
    52    26    56 1   
    53    27    28 ar  
    54    27    31 1   
    55    28    29 ar  
    56    28    57 1   
    57    29    30 ar  
    58    29    58 1   
    59    30    59 1   
    60    31    32 1   
    61    31    33 1   
    62    31    34 1   
    63    32    60 1   
    64    32    61 1   
    65    32    62 1   
    66    33    63 1   
    67    33    64 1   
    68    33    65 1   
    69    34    66 1   
    70    34    67 1   
    71    34    68 1   
    72    35    69 1   
@<TRIPOS>SUBSTRUCTURE
     1 0GT         1 TEMP              0 ****  ****    0 ROOT
