@<TRIPOS>MOLECULE
0GT
   70    73     1     0     0
SMALL
bcc


@<TRIPOS>ATOM
      1 F1           1.0060     1.3400    -0.3930 f          1 0GT      -0.252300
      2 C2           1.3080     0.2300     0.3690 c3         1 0GT       0.398900
      3 F4           0.1090    -0.0240     1.0000 f          1 0GT      -0.252300
      4 C5           1.7650    -0.9770    -0.4880 c3         1 0GT      -0.057200
      5 C8           3.1810    -0.8900    -0.8520 cc         1 0GT      -0.158400
      6 C9           4.2190    -1.6800    -0.3500 cd         1 0GT      -0.072100
      7 N11          5.4260    -1.3360    -0.9600 na         1 0GT      -0.179400
      8 C13          5.1800    -0.3180    -1.8820 ca         1 0GT      -0.039200
      9 C14          3.7680    -0.0070    -1.8390 ca         1 0GT      -0.085800
     10 C15          3.2560     0.9910    -2.6670 ca         1 0GT      -0.075000
     11 C17          4.1190     1.6730    -3.5190 ca         1 0GT      -0.141300
     12 C18          5.4950     1.3570    -3.5570 ca         1 0GT      -0.111000
     13 C20          6.0410     0.3720    -2.7510 ca         1 0GT      -0.128000
     14 C22          3.5870     2.7300    -4.4220 c3         1 0GT      -0.020100
     15 C25          3.8730     4.1360    -3.8960 c3         1 0GT      -0.051700
     16 C27          3.3060     5.1950    -4.8560 c3         1 0GT       0.124100
     17 C29          3.6840     6.6120    -4.3300 c3         1 0GT       0.151500
     18 C31          2.9990     6.8430    -3.0020 c3         1 0GT      -0.327600
     19 S34          3.6430     5.7870    -1.7590 s6         1 0GT       1.345000
     20 C35          3.2770     4.3220    -2.5130 c3         1 0GT      -0.357600
     21 O38          5.0170     6.0200    -1.7250 o          1 0GT      -0.620300
     22 O39          2.8790     5.9740    -0.6170 o          1 0GT      -0.620300
     23 N40          3.3590     7.6760    -5.3420 ny         1 0GT      -0.760000
     24 C42          4.1150     8.9570    -5.1200 c3         1 0GT       0.178100
     25 C45          5.5340     8.8540    -5.5620 ca         1 0GT      -0.183300
     26 C46          5.8560     9.0780    -6.9040 ca         1 0GT      -0.105000
     27 C48          7.1880     9.0300    -7.3390 ca         1 0GT      -0.047300
     28 C49          8.1880     8.7520    -6.3980 ca         1 0GT      -0.083000
     29 C51          7.8670     8.5280    -5.0580 ca         1 0GT      -0.117000
     30 C53          6.5420     8.5750    -4.6320 ca         1 0GT      -0.104000
     31 C55          7.4950     9.2870    -8.7920 c3         1 0GT      -0.016700
     32 C56          8.9850     9.1880    -9.0940 c3         1 0GT      -0.089433
     33 C60          6.7650     8.2600    -9.6530 c3         1 0GT      -0.089433
     34 C64          7.0230    10.6900    -9.1670 c3         1 0GT      -0.089433
     35 O68          3.8690     5.1140    -6.1550 oh         1 0GT      -0.625800
     36 H1           2.0970     0.4940     1.1340 h2         1 0GT       0.072700
     37 H2           1.5680    -1.9070     0.1080 hc         1 0GT       0.079200
     38 H3           1.1300    -1.0190    -1.4130 hc         1 0GT       0.079200
     39 H4           4.1820    -2.4720     0.4030 h4         1 0GT       0.180000
     40 H5           6.2980    -1.7680    -0.8020 hn         1 0GT       0.311700
     41 H6           2.1810     1.2280    -2.6300 ha         1 0GT       0.145000
     42 H7           6.1490     1.9080    -4.2500 ha         1 0GT       0.130000
     43 H8           7.1140     0.1360    -2.7930 ha         1 0GT       0.145000
     44 H9           4.0680     2.6090    -5.4310 hc         1 0GT       0.053200
     45 H10          2.4790     2.6040    -4.5530 hc         1 0GT       0.053200
     46 H11          4.9930     4.2640    -3.8360 hc         1 0GT       0.094700
     47 H12          2.1870     5.0920    -4.9270 h1         1 0GT       0.060700
     48 H13          4.8150     6.6520    -4.1960 hx         1 0GT       0.144700
     49 H14          1.8910     6.6970    -3.0920 h1         1 0GT       0.123700
     50 H15          3.1400     7.9010    -2.6520 h1         1 0GT       0.123700
     51 H16          2.1670     4.1430    -2.5670 h1         1 0GT       0.153200
     52 H17          3.6470     3.4550    -1.8810 h1         1 0GT       0.153200
     53 H18          2.3540     7.8650    -5.3150 hn         1 0GT       0.456800
     54 H20          4.0540     9.2150    -4.0250 hx         1 0GT       0.102700
     55 H21          3.5780     9.7550    -5.7120 hx         1 0GT       0.102700
     56 H22          5.0580     9.3110    -7.6270 ha         1 0GT       0.135000
     57 H23          9.2480     8.7090    -6.7010 ha         1 0GT       0.160000
     58 H24          8.6670     8.3150    -4.3320 ha         1 0GT       0.158000
     59 H25          6.3010     8.4070    -3.5700 ha         1 0GT       0.147000
     60 H26          9.5580     9.9470    -8.5090 hc         1 0GT       0.043367
     61 H27          9.3710     8.1690    -8.8540 hc         1 0GT       0.043367
     62 H28          9.1590     9.3810   -10.1810 hc         1 0GT       0.043367
     63 H29          7.0900     7.2260    -9.3860 hc         1 0GT       0.043367
     64 H30          6.9960     8.4390   -10.7310 hc         1 0GT       0.043367
     65 H31          5.6600     8.3370    -9.5140 hc         1 0GT       0.043367
     66 H32          7.2580    10.8920   -10.2400 hc         1 0GT       0.043367
     67 H33          5.9220    10.7900    -9.0220 hc         1 0GT       0.043367
     68 H34          7.5400    11.4540    -8.5390 hc         1 0GT       0.043367
     69 H35          3.7330     4.2170    -6.4890 ho         1 0GT       0.452000
     70 H402         3.6080     7.3050    -6.2730 hn         1 0GT       0.456800
@<TRIPOS>BOND
     1     1     2 1   
     2     2     3 1   
     3     2     4 1   
     4     2    36 1   
     5     4     5 1   
     6     4    37 1   
     7     4    38 1   
     8     5     6 2   
     9     5     9 1   
    10     6     7 1   
    11     6    39 1   
    12     7     8 1   
    13     7    40 1   
    14     8     9 ar  
    15     8    13 ar  
    16     9    10 ar  
    17    10    11 ar  
    18    10    41 1   
    19    11    12 ar  
    20    11    14 1   
    21    12    13 ar  
    22    12    42 1   
    23    13    43 1   
    24    14    15 1   
    25    14    44 1   
    26    14    45 1   
    27    15    16 1   
    28    15    20 1   
    29    15    46 1   
    30    16    17 1   
    31    16    35 1   
    32    16    47 1   
    33    17    18 1   
    34    17    23 1   
    35    17    48 1   
    36    18    19 1   
    37    18    49 1   
    38    18    50 1   
    39    19    20 1   
    40    19    21 2   
    41    19    22 2   
    42    20    51 1   
    43    20    52 1   
    44    23    24 1   
    45    23    53 1   
    46    23    70 1   
    47    24    25 1   
    48    24    54 1   
    49    24    55 1   
    50    25    26 ar  
    51    25    30 ar  
    52    26    27 ar  
    53    26    56 1   
    54    27    28 ar  
    55    27    31 1   
    56    28    29 ar  
    57    28    57 1   
    58    29    30 ar  
    59    29    58 1   
    60    30    59 1   
    61    31    32 1   
    62    31    33 1   
    63    31    34 1   
    64    32    60 1   
    65    32    61 1   
    66    32    62 1   
    67    33    63 1   
    68    33    64 1   
    69    33    65 1   
    70    34    66 1   
    71    34    67 1   
    72    34    68 1   
    73    35    69 1   
@<TRIPOS>SUBSTRUCTURE
     1 0GT         1 TEMP              0 ****  ****    0 ROOT
