@<TRIPOS>MOLECULE
molecule
   78    82     1     0     0
SMALL
bcc


@<TRIPOS>ATOM
      1 F1           0.0000     0.0000     0.0000 f          1 0GU      -0.237800
      2 C2           1.3990     0.0000     0.0000 c3         1 0GU       0.402600
      3 C3           1.9090     0.0000     1.4430 c3         1 0GU      -0.123400
      4 C6           1.3850    -1.2430     2.1670 c3         1 0GU      -0.064400
      5 C9           1.8580    -2.4950     1.4390 c3         1 0GU      -0.051700
      6 C10          3.3940    -2.6040     1.5020 c3         1 0GU       0.161800
      7 N13          3.6070    -4.0630     1.6340 nu         1 0GU      -0.671600
      8 C15          2.4680    -4.6130     2.2400 ca         1 0GU       0.046600
      9 C16          1.3890    -3.7390     2.1560 ca         1 0GU      -0.108300
     10 C17          0.1630    -4.0910     2.6840 ca         1 0GU      -0.113000
     11 C19         -0.0010    -5.3150     3.3070 ca         1 0GU      -0.076300
     12 C20          1.0670    -6.1880     3.4010 ca         1 0GU      -0.145000
     13 C22          2.2950    -5.8440     2.8720 ca         1 0GU       0.146900
     14 F23          3.3340    -6.7030     2.9670 f          1 0GU      -0.130900
     15 C24         -1.3400    -5.6950     3.8820 c3         1 0GU      -0.020100
     16 C27         -2.1680    -6.4150     2.8170 c3         1 0GU      -0.070700
     17 C29         -3.4700    -6.9130     3.4370 c3         1 0GU       0.144100
     18 C31         -4.2010    -7.8460     2.4750 c3         1 0GU       0.181500
     19 C33         -4.7470    -7.0510     1.2880 c3         1 0GU      -0.253600
     20 S36         -3.3560    -6.3430     0.3590 s6         1 0GU       1.101000
     21 C37         -2.4730    -5.4470     1.6710 c3         1 0GU      -0.203600
     22 O40         -2.5310    -7.4040    -0.1030 o          1 0GU      -0.608300
     23 O41         -3.8640    -5.4010    -0.5750 o          1 0GU      -0.608300
     24 N42         -5.3160    -8.4950     3.1790 n7         1 0GU      -0.780200
     25 C44         -6.3090    -7.5060     3.6170 c3         1 0GU       0.198100
     26 C47         -7.4340    -8.2070     4.3340 ca         1 0GU      -0.088300
     27 C48         -7.3680    -8.4030     5.7000 ca         1 0GU      -0.099000
     28 C50         -8.4010    -9.0460     6.3570 ca         1 0GU      -0.069300
     29 C51         -9.4990    -9.4930     5.6470 ca         1 0GU      -0.125000
     30 C53         -9.5660    -9.2960     4.2800 ca         1 0GU      -0.125000
     31 C55         -8.5360    -8.6480     3.6240 ca         1 0GU      -0.130000
     32 C57         -8.3280    -9.2610     7.8470 c3         1 0GU      -0.024700
     33 C58         -7.0950   -10.1030     8.1810 c3         1 0GU      -0.081100
     34 C62         -8.2270    -7.9070     8.5530 c3         1 0GU      -0.081100
     35 C66         -9.5870    -9.9900     8.3190 c3         1 0GU      -0.081100
     36 O70         -3.1760    -7.6180     4.6450 oh         1 0GU      -0.570800
     37 C72          1.3860    -2.4980    -0.0090 c3         1 0GU      -0.064400
     38 C75          1.9100    -1.2480    -0.7220 c3         1 0GU      -0.123400
     39 F78          1.8650     1.1430    -0.6590 f          1 0GU      -0.237800
     40 H1           1.5540     0.8890     1.9510 hc         1 0GU       0.068950
     41 H2           2.9920    -0.0130     1.4420 hc         1 0GU       0.068950
     42 H3           1.7630    -1.2540     3.1820 hc         1 0GU       0.060450
     43 H4           0.3020    -1.2220     2.1790 hc         1 0GU       0.060450
     44 H5           3.8420    -2.2330     0.5890 h1         1 0GU       0.067200
     45 H6           3.7790    -2.0810     2.3690 h1         1 0GU       0.067200
     46 H7           3.7290    -4.4660     0.7260 hn         1 0GU       0.375800
     47 H8          -0.6730    -3.4060     2.6100 ha         1 0GU       0.135000
     48 H9           0.9380    -7.1470     3.8890 ha         1 0GU       0.156000
     49 H10         -1.1950    -6.3520     4.7320 hc         1 0GU       0.059200
     50 H11         -1.8620    -4.8010     4.2020 hc         1 0GU       0.059200
     51 H12         -1.6090    -7.2600     2.4320 hc         1 0GU       0.089700
     52 H13         -4.1040    -6.0640     3.6590 h1         1 0GU       0.032700
     53 H14         -3.5110    -8.5990     2.1130 h1         1 0GU       0.096700
     54 H15         -5.3840    -6.2520     1.6500 h1         1 0GU       0.106700
     55 H16         -5.3150    -7.7090     0.6420 h1         1 0GU       0.106700
     56 H17         -1.5460    -5.0500     1.2760 h1         1 0GU       0.106700
     57 H18         -3.0940    -4.6380     2.0370 h1         1 0GU       0.106700
     58 H19         -5.7520    -9.1600     2.5720 hn         1 0GU       0.366800
     59 H21         -6.7020    -6.9820     2.7540 h1         1 0GU       0.034200
     60 H22         -5.8410    -6.7960     4.2870 h1         1 0GU       0.034200
     61 H23         -6.5070    -8.0520     6.2570 ha         1 0GU       0.134000
     62 H24        -10.3070    -9.9990     6.1610 ha         1 0GU       0.138000
     63 H25        -10.4280    -9.6440     3.7240 ha         1 0GU       0.130000
     64 H26         -8.5880    -8.4940     2.5530 ha         1 0GU       0.125000
     65 H27         -6.2110    -9.4780     8.1500 hc         1 0GU       0.037367
     66 H28         -7.2040   -10.5250     9.1730 hc         1 0GU       0.037367
     67 H29         -6.9970   -10.9030     7.4570 hc         1 0GU       0.037367
     68 H30         -8.3270    -8.0500     9.6220 hc         1 0GU       0.037367
     69 H31         -7.2650    -7.4580     8.3380 hc         1 0GU       0.037367
     70 H32         -9.0170    -7.2560     8.2000 hc         1 0GU       0.037367
     71 H33         -9.5380   -10.1370     9.3910 hc         1 0GU       0.037367
     72 H34         -9.6540   -10.9520     7.8250 hc         1 0GU       0.037367
     73 H35        -10.4600    -9.3980     8.0750 hc         1 0GU       0.037367
     74 H36         -3.4160    -7.0860     5.3850 ho         1 0GU       0.403000
     75 H37          0.3030    -2.4980    -0.0330 hc         1 0GU       0.060450
     76 H38          1.7640    -3.3810    -0.5080 hc         1 0GU       0.060450
     77 H39          2.9930    -1.2540    -0.7090 hc         1 0GU       0.068950
     78 H40          1.5550    -1.2430    -1.7450 hc         1 0GU       0.068950
@<TRIPOS>BOND
     1     1     2 1
     2    39     2 1
     3     2     3 1
     4     2    38 1
     5     3     4 1
     6     4     5 1
     7    38    37 1
     8    37     5 1
     9     5     9 1
    10     5     6 1
    11    10     9 ar
    12    10    11 ar
    13     9     8 ar
    14    15    11 1
    15    15    16 1
    16    21    16 1
    17    21    20 1
    18    17    36 1
    19    17    16 1
    20    17    18 1
    21     6     7 1
    22    11    12 ar
    23    19    18 1
    24    19    20 1
    25    24    18 1
    26    24    25 1
    27    23    20 2
    28    20    22 2
    29     8     7 1
    30     8    13 ar
    31    25    26 1
    32    12    13 ar
    33    13    14 1
    34    26    27 ar
    35    26    31 ar
    36    27    28 ar
    37    31    30 ar
    38    35    32 1
    39    28    32 1
    40    28    29 ar
    41    33    32 1
    42    32    34 1
    43    30    29 ar
    44     3    40 1
    45     3    41 1
    46     4    42 1
    47     4    43 1
    48     6    44 1
    49     6    45 1
    50     7    46 1
    51    10    47 1
    52    12    48 1
    53    15    49 1
    54    15    50 1
    55    16    51 1
    56    17    52 1
    57    18    53 1
    58    19    54 1
    59    19    55 1
    60    21    56 1
    61    21    57 1
    62    24    58 1
    63    25    59 1
    64    25    60 1
    65    27    61 1
    66    29    62 1
    67    30    63 1
    68    31    64 1
    69    33    65 1
    70    33    66 1
    71    33    67 1
    72    34    68 1
    73    34    69 1
    74    34    70 1
    75    35    71 1
    76    35    72 1
    77    35    73 1
    78    36    74 1
    79    37    75 1
    80    37    76 1
    81    38    77 1
    82    38    78 1
@<TRIPOS>SUBSTRUCTURE
     1 0GU         1 TEMP              0 ****  ****    0 ROOT
