@<TRIPOS>MOLECULE
0GU
   79    83     1     0     0
SMALL
bcc


@<TRIPOS>ATOM
      1 F1           0.0580     0.5830     0.7070 f          1 0GU      -0.239800
      2 C2           1.4040     0.3090     0.5270 c3         1 0GU       0.405600
      3 C3           2.0500    -0.1440     1.8590 c3         1 0GU      -0.119400
      4 C6           3.4910    -0.5520     1.6760 c3         1 0GU      -0.068900
      5 C9           3.7030    -1.6070     0.5980 c3         1 0GU      -0.008700
      6 C10          5.2520    -1.7770     0.3460 c3         1 0GU       0.169800
      7 N13          5.5830    -3.1930     0.5080 nu         1 0GU      -0.698600
      8 C15          4.4490    -3.8430     1.0170 ca         1 0GU       0.107600
      9 C16          3.2960    -2.9970     1.0320 ca         1 0GU      -0.108300
     10 C17          2.0670    -3.5050     1.4040 ca         1 0GU      -0.094000
     11 C19          1.9540    -4.8550     1.7820 ca         1 0GU      -0.135300
     12 C20          3.0740    -5.6830     1.7960 ca         1 0GU      -0.125000
     13 C22          4.3360    -5.1910     1.4160 ca         1 0GU       0.091900
     14 F23          5.4200    -6.0010     1.4440 f          1 0GU      -0.126900
     15 C24          0.6330    -5.3970     2.2060 c3         1 0GU      -0.020100
     16 C27          0.0550    -6.3690     1.1790 c3         1 0GU      -0.052700
     17 C29         -1.2730    -6.9600     1.6780 c3         1 0GU       0.125100
     18 C31         -1.7880    -7.9980     0.6350 c3         1 0GU       0.151500
     19 C33         -2.1170    -7.2760    -0.6530 c3         1 0GU      -0.328600
     20 S36         -0.6710    -6.6570    -1.4230 s6         1 0GU       1.344000
     21 C37         -0.1530    -5.6710    -0.1510 c3         1 0GU      -0.352600
     22 O40          0.1720    -7.7500    -1.6050 o          1 0GU      -0.618300
     23 O41         -1.0710    -5.8910    -2.5080 o          1 0GU      -0.618300
     24 N42         -2.9490    -8.7880     1.1720 ny         1 0GU      -0.760000
     25 C44         -3.1650   -10.0880     0.4470 c3         1 0GU       0.179100
     26 C47         -2.1600   -11.1180     0.8330 ca         1 0GU      -0.185300
     27 C48         -2.3740   -11.8960     1.9750 ca         1 0GU      -0.105000
     28 C50         -1.4670   -12.9020     2.3370 ca         1 0GU      -0.047300
     29 C51         -0.3410   -13.1080     1.5290 ca         1 0GU      -0.082000
     30 C53         -0.1270   -12.3310     0.3890 ca         1 0GU      -0.116000
     31 C55         -1.0310   -11.3340     0.0340 ca         1 0GU      -0.105000
     32 C57         -1.7380   -13.7240     3.5700 c3         1 0GU      -0.016700
     33 C58         -3.0680   -14.4560     3.4070 c3         1 0GU      -0.089433
     34 C62         -0.6510   -14.7630     3.8220 c3         1 0GU      -0.089433
     35 C66         -1.8110   -12.8060     4.7870 c3         1 0GU      -0.089433
     36 O70         -1.1290    -7.6850     2.8890 oh         1 0GU      -0.623800
     37 C72          3.0460    -1.1700    -0.7070 c3         1 0GU      -0.068900
     38 C75          1.5970    -0.7800    -0.5570 c3         1 0GU      -0.119400
     39 F78          1.8820     1.5380     0.1130 f          1 0GU      -0.239800
     40 H1           1.9910     0.7050     2.5900 hc         1 0GU       0.067450
     41 H2           1.4420    -0.9910     2.2660 hc         1 0GU       0.067450
     42 H3           3.8890    -0.9310     2.6540 hc         1 0GU       0.064450
     43 H4           4.0860     0.3600     1.3940 hc         1 0GU       0.064450
     44 H5           5.5170    -1.4860    -0.7060 h1         1 0GU       0.064200
     45 H6           5.8360    -1.1310     1.0550 h1         1 0GU       0.064200
     46 H7           6.4480    -3.3980     0.9610 hn         1 0GU       0.419800
     47 H8           1.1730    -2.8630     1.4210 ha         1 0GU       0.138000
     48 H9           2.9920    -6.7350     2.1110 ha         1 0GU       0.146000
     49 H10          0.7730    -5.9310     3.1860 hc         1 0GU       0.054700
     50 H11         -0.0960    -4.5600     2.3740 hc         1 0GU       0.054700
     51 H12          0.7950    -7.2120     1.0430 hc         1 0GU       0.096700
     52 H13         -2.0330    -6.1400     1.8200 h1         1 0GU       0.059700
     53 H14         -0.9580    -8.7590     0.4530 hx         1 0GU       0.145700
     54 H15         -2.8440    -6.4420    -0.4690 h1         1 0GU       0.125200
     55 H16         -2.6220    -7.9640    -1.3830 h1         1 0GU       0.125200
     56 H17          0.8360    -5.1840    -0.4170 h1         1 0GU       0.147700
     57 H18         -0.8460    -4.7970     0.0020 h1         1 0GU       0.147700
     58 H19         -2.7520    -8.9940     2.1640 hn         1 0GU       0.457300
     59 H21         -3.1250    -9.8840    -0.6610 hx         1 0GU       0.103200
     60 H22         -4.2060   -10.4360     0.7160 hx         1 0GU       0.103200
     61 H23         -3.2730   -11.7300     2.5890 ha         1 0GU       0.134000
     62 H24          0.3940   -13.8910     1.7790 ha         1 0GU       0.161000
     63 H25          0.7610   -12.5110    -0.2370 ha         1 0GU       0.159000
     64 H26         -0.8580   -10.7340    -0.8730 ha         1 0GU       0.147000
     65 H27         -3.9070   -13.7310     3.2820 hc         1 0GU       0.043367
     66 H28         -3.0360   -15.1260     2.5150 hc         1 0GU       0.043367
     67 H29         -3.2700   -15.0770     4.3130 hc         1 0GU       0.043367
     68 H30         -0.8940   -15.3410     4.7470 hc         1 0GU       0.043367
     69 H31         -0.5840   -15.4800     2.9700 hc         1 0GU       0.043367
     70 H32          0.3410   -14.2710     3.9690 hc         1 0GU       0.043367
     71 H33         -0.8490   -12.2550     4.9180 hc         1 0GU       0.043367
     72 H34         -2.0020   -13.4120     5.7060 hc         1 0GU       0.043367
     73 H35         -2.6380   -12.0650     4.6770 hc         1 0GU       0.043367
     74 H36         -0.7480    -7.0940     3.5520 ho         1 0GU       0.451000
     75 H37          3.6130    -0.2840    -1.1050 hc         1 0GU       0.064450
     76 H38          3.1310    -1.9960    -1.4610 hc         1 0GU       0.064450
     77 H39          1.2120    -0.3840    -1.5330 hc         1 0GU       0.067450
     78 H40          0.9710    -1.6620    -0.2720 hc         1 0GU       0.067450
     79 H422        -3.7960    -8.2190     1.1100 hn         1 0GU       0.457300
@<TRIPOS>BOND
     1     1     2 1   
     2     2     3 1   
     3     2    38 1   
     4     2    39 1   
     5     3     4 1   
     6     3    40 1   
     7     3    41 1   
     8     4     5 1   
     9     4    42 1   
    10     4    43 1   
    11     5     6 1   
    12     5     9 1   
    13     5    37 1   
    14     6     7 1   
    15     6    44 1   
    16     6    45 1   
    17     7     8 1   
    18     7    46 1   
    19     8     9 ar  
    20     8    13 ar  
    21     9    10 ar  
    22    10    11 ar  
    23    10    47 1   
    24    11    12 ar  
    25    11    15 1   
    26    12    13 ar  
    27    12    48 1   
    28    13    14 1   
    29    15    16 1   
    30    15    49 1   
    31    15    50 1   
    32    16    17 1   
    33    16    21 1   
    34    16    51 1   
    35    17    18 1   
    36    17    36 1   
    37    17    52 1   
    38    18    19 1   
    39    18    24 1   
    40    18    53 1   
    41    19    20 1   
    42    19    54 1   
    43    19    55 1   
    44    20    21 1   
    45    20    22 2   
    46    20    23 2   
    47    21    56 1   
    48    21    57 1   
    49    24    25 1   
    50    24    58 1   
    51    24    79 1   
    52    25    26 1   
    53    25    59 1   
    54    25    60 1   
    55    26    27 ar  
    56    26    31 ar  
    57    27    28 ar  
    58    27    61 1   
    59    28    29 ar  
    60    28    32 1   
    61    29    30 ar  
    62    29    62 1   
    63    30    31 ar  
    64    30    63 1   
    65    31    64 1   
    66    32    33 1   
    67    32    34 1   
    68    32    35 1   
    69    33    65 1   
    70    33    66 1   
    71    33    67 1   
    72    34    68 1   
    73    34    69 1   
    74    34    70 1   
    75    35    71 1   
    76    35    72 1   
    77    35    73 1   
    78    36    74 1   
    79    37    38 1   
    80    37    75 1   
    81    37    76 1   
    82    38    77 1   
    83    38    78 1   
@<TRIPOS>SUBSTRUCTURE
     1 0GU         1 TEMP              0 ****  ****    0 ROOT
