@<TRIPOS>MOLECULE
0GU
   78    82     1     0     0
SMALL
bcc


@<TRIPOS>ATOM
      1 F1           0.0000     0.0000     0.0000 f          1 0GU      -0.221300
      2 C2           1.3990     0.0000     0.0000 c3         1 0GU       0.375600
      3 C3           1.9090     0.0000     1.4430 c3         1 0GU      -0.076400
      4 C6           1.3850    -1.2430     2.1670 c3         1 0GU      -0.009900
      5 C9           1.8580    -2.4950     1.4390 c3         1 0GU      -0.033700
      6 C10          3.3940    -2.6040     1.5020 c3         1 0GU       0.126800
      7 N13          3.6070    -4.0630     1.6340 nu         1 0GU      -0.394600
      8 C15          2.4680    -4.6130     2.2400 ca         1 0GU      -0.025400
      9 C16          1.3890    -3.7390     2.1560 ca         1 0GU      -0.116300
     10 C17          0.1630    -4.0910     2.6840 ca         1 0GU      -0.079000
     11 C19         -0.0010    -5.3150     3.3070 ca         1 0GU      -0.084300
     12 C20          1.0670    -6.1880     3.4010 ca         1 0GU      -0.109000
     13 C22          2.2950    -5.8440     2.8720 ca         1 0GU       0.123900
     14 F23          3.3340    -6.7030     2.9670 f          1 0GU      -0.122900
     15 C24         -1.3400    -5.6950     3.8820 c3         1 0GU       0.033900
     16 C27         -2.1680    -6.4150     2.8170 c3         1 0GU      -0.049700
     17 C29         -3.4700    -6.9130     3.4370 c3         1 0GU       0.177100
     18 C31         -4.2010    -7.8460     2.4750 c3         1 0GU       0.133500
     19 C33         -4.7470    -7.0510     1.2880 c3         1 0GU      -0.061600
     20 S36         -3.3560    -6.3430     0.3590 s6         1 0GU       0.796000
     21 C37         -2.4730    -5.4470     1.6710 c3         1 0GU      -0.019600
     22 O40         -2.5310    -7.4040    -0.1030 o          1 0GU      -0.578300
     23 O41         -3.8640    -5.4010    -0.5750 o          1 0GU      -0.578300
     24 N42         -5.3160    -8.4950     3.1790 n7         1 0GU      -0.551200
     25 C44         -6.3090    -7.5060     3.6170 c3         1 0GU       0.184100
     26 C47         -7.4340    -8.2070     4.3340 ca         1 0GU      -0.095300
     27 C48         -7.3680    -8.4030     5.7000 ca         1 0GU      -0.077000
     28 C50         -8.4010    -9.0460     6.3570 ca         1 0GU      -0.074300
     29 C51         -9.4990    -9.4930     5.6470 ca         1 0GU      -0.109000
     30 C53         -9.5660    -9.2960     4.2800 ca         1 0GU      -0.094000
     31 C55         -8.5360    -8.6480     3.6240 ca         1 0GU      -0.103000
     32 C57         -8.3280    -9.2610     7.8470 c3         1 0GU      -0.014700
     33 C58         -7.0950   -10.1030     8.1810 c3         1 0GU       0.004900
     34 C62         -8.2270    -7.9070     8.5530 c3         1 0GU       0.004900
     35 C66         -9.5870    -9.9900     8.3190 c3         1 0GU       0.004900
     36 O70         -3.1760    -7.6180     4.6450 oh         1 0GU      -0.555800
     37 C72          1.3860    -2.4980    -0.0090 c3         1 0GU      -0.009900
     38 C75          1.9100    -1.2480    -0.7220 c3         1 0GU      -0.076400
     39 F78          1.8650     1.1430    -0.6590 f          1 0GU      -0.221300
     40 H1           1.5540     0.8890     1.9510 hc         1 0GU       0.043200
     41 H2           2.9920    -0.0130     1.4420 hc         1 0GU       0.043200
     42 H3           1.7630    -1.2540     3.1820 hc         1 0GU       0.032200
     43 H4           0.3020    -1.2220     2.1790 hc         1 0GU       0.032200
     44 H5           3.8420    -2.2330     0.5890 h1         1 0GU       0.037700
     45 H6           3.7790    -2.0810     2.3690 h1         1 0GU       0.037700
     46 H7           3.7290    -4.4660     0.7260 hn         1 0GU       0.262800
     47 H8          -0.6730    -3.4060     2.6100 ha         1 0GU       0.113000
     48 H9           0.9380    -7.1470     3.8890 ha         1 0GU       0.128000
     49 H10         -1.1950    -6.3520     4.7320 hc         1 0GU       0.028200
     50 H11         -1.8620    -4.8010     4.2020 hc         1 0GU       0.028200
     51 H12         -1.6090    -7.2600     2.4320 hc         1 0GU       0.067700
     52 H13         -4.1040    -6.0640     3.6590 h1         1 0GU       0.005700
     53 H14         -3.5110    -8.5990     2.1130 h1         1 0GU       0.068700
     54 H15         -5.3840    -6.2520     1.6500 h1         1 0GU       0.079700
     55 H16         -5.3150    -7.7090     0.6420 h1         1 0GU       0.079700
     56 H17         -1.5460    -5.0500     1.2760 h1         1 0GU       0.078700
     57 H18         -3.0940    -4.6380     2.0370 h1         1 0GU       0.078700
     58 H19         -5.7520    -9.1600     2.5720 hn         1 0GU       0.262800
     59 H21         -6.7020    -6.9820     2.7540 h1         1 0GU       0.010700
     60 H22         -5.8410    -6.7960     4.2870 h1         1 0GU       0.010700
     61 H23         -6.5070    -8.0520     6.2570 ha         1 0GU       0.112000
     62 H24        -10.3070    -9.9990     6.1610 ha         1 0GU       0.120000
     63 H25        -10.4280    -9.6440     3.7240 ha         1 0GU       0.103000
     64 H26         -8.5880    -8.4940     2.5530 ha         1 0GU       0.101000
     65 H27         -6.2110    -9.4780     8.1500 hc         1 0GU       0.007478
     66 H28         -7.2040   -10.5250     9.1730 hc         1 0GU       0.007478
     67 H29         -6.9970   -10.9030     7.4570 hc         1 0GU       0.007478
     68 H30         -8.3270    -8.0500     9.6220 hc         1 0GU       0.007478
     69 H31         -7.2650    -7.4580     8.3380 hc         1 0GU       0.007478
     70 H32         -9.0170    -7.2560     8.2000 hc         1 0GU       0.007478
     71 H33         -9.5380   -10.1370     9.3910 hc         1 0GU       0.007478
     72 H34         -9.6540   -10.9520     7.8250 hc         1 0GU       0.007478
     73 H35        -10.4600    -9.3980     8.0750 hc         1 0GU       0.007478
     74 H36         -3.4160    -7.0860     5.3850 ho         1 0GU       0.390000
     75 H37          0.3030    -2.4980    -0.0330 hc         1 0GU       0.032200
     76 H38          1.7640    -3.3810    -0.5080 hc         1 0GU       0.032200
     77 H39          2.9930    -1.2540    -0.7090 hc         1 0GU       0.043200
     78 H40          1.5550    -1.2430    -1.7450 hc         1 0GU       0.043200
@<TRIPOS>BOND
     1     1     2 1   
     2     2     3 1   
     3     2    38 1   
     4     2    39 1   
     5     3     4 1   
     6     3    40 1   
     7     3    41 1   
     8     4     5 1   
     9     4    42 1   
    10     4    43 1   
    11     5     6 1   
    12     5     9 1   
    13     5    37 1   
    14     6     7 1   
    15     6    44 1   
    16     6    45 1   
    17     7     8 1   
    18     7    46 1   
    19     8     9 ar  
    20     8    13 ar  
    21     9    10 ar  
    22    10    11 ar  
    23    10    47 1   
    24    11    12 ar  
    25    11    15 1   
    26    12    13 ar  
    27    12    48 1   
    28    13    14 1   
    29    15    16 1   
    30    15    49 1   
    31    15    50 1   
    32    16    17 1   
    33    16    21 1   
    34    16    51 1   
    35    17    18 1   
    36    17    36 1   
    37    17    52 1   
    38    18    19 1   
    39    18    24 1   
    40    18    53 1   
    41    19    20 1   
    42    19    54 1   
    43    19    55 1   
    44    20    21 1   
    45    20    22 2   
    46    20    23 2   
    47    21    56 1   
    48    21    57 1   
    49    24    25 1   
    50    24    58 1   
    51    25    26 1   
    52    25    59 1   
    53    25    60 1   
    54    26    27 ar  
    55    26    31 ar  
    56    27    28 ar  
    57    27    61 1   
    58    28    29 ar  
    59    28    32 1   
    60    29    30 ar  
    61    29    62 1   
    62    30    31 ar  
    63    30    63 1   
    64    31    64 1   
    65    32    33 1   
    66    32    34 1   
    67    32    35 1   
    68    33    65 1   
    69    33    66 1   
    70    33    67 1   
    71    34    68 1   
    72    34    69 1   
    73    34    70 1   
    74    35    71 1   
    75    35    72 1   
    76    35    73 1   
    77    36    74 1   
    78    37    38 1   
    79    37    75 1   
    80    37    76 1   
    81    38    77 1   
    82    38    78 1   
@<TRIPOS>SUBSTRUCTURE
     1 0GU         1 TEMP              0 ****  ****    0 ROOT
