@<TRIPOS>MOLECULE
molecule
   73    76     1     0     0
SMALL
bcc


@<TRIPOS>ATOM
      1 C10          0.0000     0.0000     0.0000 c3         1 0GV      -0.026800
      2 C11          2.0620     1.1650    -0.8180 c3         1 0GV      -0.077400
      3 C12          3.6010     1.1730    -0.8190 c3         1 0GV      -0.067400
      4 C13          4.0520     1.2380     0.6270 c3         1 0GV      -0.067000
      5 C14          3.5870    -0.0700     1.3220 c3         1 0GV      -0.053700
      6 C15          4.3560    -0.0060     2.6460 c3         1 0GV      -0.074400
      7 C16          5.7590     0.4940     2.2090 c3         1 0GV      -0.083400
      8 C17          5.5580     1.2500     0.8720 c3         1 0GV      -0.054700
      9 C18          3.4100     2.4440     1.3150 c3         1 0GV      -0.093100
     10 C9           1.5160     0.0000     0.0000 c3         1 0GV      -0.049700
     11 C19         -0.4630     1.4300     0.2860 c3         1 0GV      -0.086100
     12 C1          -0.5070    -0.3930    -1.3920 c3         1 0GV      -0.068400
     13 C2          -2.0350    -0.4430    -1.3910 c3         1 0GV      -0.094400
     14 C3          -2.5050    -1.5370    -0.4280 c3         1 0GV       0.149100
     15 O1          -3.9270    -1.6610    -0.5040 oh         1 0GV      -0.604800
     16 C4          -2.1000    -1.1540     0.9990 c3         1 0GV      -0.060200
     17 C5          -0.6050    -0.9020     1.0340 c2         1 0GV      -0.045400
     18 C6           0.1000    -1.4830     2.0040 ce         1 0GV      -0.259200
     19 C7           1.5440    -1.2440     2.1130 c          1 0GV       0.573300
     20 O7           2.2730    -2.0010     2.7180 o          1 0GV      -0.522100
     21 C8           2.0750     0.0000     1.4290 c3         1 0GV      -0.157700
     22 C20          6.0640     2.6880     0.9940 c3         1 0GV      -0.070700
     23 C21          5.8220     3.4270    -0.3240 c3         1 0GV      -0.096100
     24 C22          7.5610     2.6770     1.3060 c3         1 0GV      -0.080400
     25 C23          8.0420     4.1090     1.5500 c3         1 0GV      -0.085400
     26 C24          9.5400     4.0970     1.8620 c3         1 0GV      -0.076400
     27 C25         10.0210     5.5290     2.1060 c3         1 0GV      -0.077700
     28 C26         11.4880     5.5070     2.5400 c3         1 0GV      -0.087600
     29 C27          9.8810     6.3420     0.8170 c3         1 0GV      -0.087600
     30 H1           1.7040     2.0940    -0.3920 hc         1 0GV       0.046200
     31 H2           1.7080     1.0770    -1.8380 hc         1 0GV       0.046200
     32 H3           3.9630     2.0420    -1.3560 hc         1 0GV       0.047200
     33 H4           3.9730     0.2660    -1.2800 hc         1 0GV       0.047200
     34 H5           3.8910    -0.9360     0.7450 hc         1 0GV       0.065700
     35 H6           4.4240    -0.9900     3.0960 hc         1 0GV       0.054700
     36 H7           3.8920     0.7010     3.3230 hc         1 0GV       0.054700
     37 H8           6.4230    -0.3490     2.0620 hc         1 0GV       0.044700
     38 H9           6.1620     1.1660     2.9570 hc         1 0GV       0.044700
     39 H10          6.0700     0.7320     0.0700 hc         1 0GV       0.054700
     40 H11          2.3560     2.2500     1.4740 hc         1 0GV       0.038700
     41 H12          3.8930     2.6150     2.2690 hc         1 0GV       0.038700
     42 H13          3.5250     3.3210     0.6900 hc         1 0GV       0.038700
     43 H14          1.8430    -0.9160    -0.4780 hc         1 0GV       0.053700
     44 H15         -1.5150     1.4240     0.5460 hc         1 0GV       0.041033
     45 H16          0.1100     1.8370     1.1100 hc         1 0GV       0.041033
     46 H17         -0.3130     2.0420    -0.5950 hc         1 0GV       0.041033
     47 H18         -0.1740     0.3410    -2.1160 hc         1 0GV       0.049700
     48 H19         -0.1170    -1.3690    -1.6540 hc         1 0GV       0.049700
     49 H20         -2.3890    -0.6660    -2.3900 hc         1 0GV       0.055200
     50 H21         -2.4270     0.5140    -1.0680 hc         1 0GV       0.055200
     51 H22         -2.0390    -2.4770    -0.6950 h1         1 0GV       0.036700
     52 H23         -4.1510    -2.5390    -0.7670 ho         1 0GV       0.403000
     53 H24         -2.3470    -1.9650     1.6740 hc         1 0GV       0.064700
     54 H25         -2.6260    -0.2550     1.2950 hc         1 0GV       0.064700
     55 H26         -0.3940    -2.1350     2.7140 ha         1 0GV       0.150000
     56 H27          1.7680     0.8920     1.9620 hc         1 0GV       0.090700
     57 H28          5.5320     3.1910     1.7930 hc         1 0GV       0.057700
     58 H29          6.6660     4.0720    -0.5360 hc         1 0GV       0.035700
     59 H30          4.9220     4.0240    -0.2430 hc         1 0GV       0.035700
     60 H31          5.7070     2.7070    -1.1260 hc         1 0GV       0.035700
     61 H32          8.1020     2.2530     0.4690 hc         1 0GV       0.043200
     62 H33          7.7410     2.0800     2.1920 hc         1 0GV       0.043200
     63 H34          7.5030     4.5330     2.3890 hc         1 0GV       0.043200
     64 H35          7.8620     4.7070     0.6650 hc         1 0GV       0.043200
     65 H36          9.7200     3.5000     2.7470 hc         1 0GV       0.041200
     66 H37         10.0800     3.6730     1.0240 hc         1 0GV       0.041200
     67 H38          9.4210     5.9830     2.8850 hc         1 0GV       0.048700
     68 H39         12.0920     5.0770     1.7500 hc         1 0GV       0.033033
     69 H40         11.8210     6.5190     2.7390 hc         1 0GV       0.033033
     70 H41         11.5900     4.9100     3.4380 hc         1 0GV       0.033033
     71 H42         10.5710     7.1770     0.8400 hc         1 0GV       0.033033
     72 H43          8.8670     6.7140     0.7330 hc         1 0GV       0.033033
     73 H44         10.1060     5.7110    -0.0340 hc         1 0GV       0.033033
@<TRIPOS>BOND
     1    29    27 1
     2    27    26 1
     3    27    28 1
     4    26    25 1
     5    25    24 1
     6    24    22 1
     7    22    23 1
     8    22     8 1
     9     7     8 1
    10     7     6 1
    11     8     4 1
    12     6     5 1
    13     4     5 1
    14     4     3 1
    15     4     9 1
    16     5    21 1
    17     3     2 1
    18    20    19 2
    19    21    19 1
    20    21    10 1
    21    19    18 1
    22     2    10 1
    23    10     1 1
    24    18    17 2
    25     1    17 1
    26     1    12 1
    27     1    11 1
    28    17    16 1
    29    12    13 1
    30    16    14 1
    31    14    13 1
    32    14    15 1
    33     2    30 1
    34     2    31 1
    35     3    32 1
    36     3    33 1
    37     5    34 1
    38     6    35 1
    39     6    36 1
    40     7    37 1
    41     7    38 1
    42     8    39 1
    43     9    40 1
    44     9    41 1
    45     9    42 1
    46    10    43 1
    47    11    44 1
    48    11    45 1
    49    11    46 1
    50    12    47 1
    51    12    48 1
    52    13    49 1
    53    13    50 1
    54    14    51 1
    55    15    52 1
    56    16    53 1
    57    16    54 1
    58    18    55 1
    59    21    56 1
    60    22    57 1
    61    23    58 1
    62    23    59 1
    63    23    60 1
    64    24    61 1
    65    24    62 1
    66    25    63 1
    67    25    64 1
    68    26    65 1
    69    26    66 1
    70    27    67 1
    71    28    68 1
    72    28    69 1
    73    28    70 1
    74    29    71 1
    75    29    72 1
    76    29    73 1
@<TRIPOS>SUBSTRUCTURE
     1 0GV         1 TEMP              0 ****  ****    0 ROOT
