@<TRIPOS>MOLECULE
0GV
   73    76     1     0     0
SMALL
bcc


@<TRIPOS>ATOM
      1 C10          0.0000     0.0000     0.0000 c3         1 0GV      -0.013800
      2 C11          2.0620     1.1650    -0.8180 c3         1 0GV      -0.046400
      3 C12          3.6010     1.1730    -0.8190 c3         1 0GV      -0.019400
      4 C13          4.0520     1.2380     0.6270 c3         1 0GV      -0.066000
      5 C14          3.5870    -0.0700     1.3220 c3         1 0GV      -0.033700
      6 C15          4.3560    -0.0060     2.6460 c3         1 0GV      -0.027400
      7 C16          5.7590     0.4940     2.2090 c3         1 0GV      -0.031400
      8 C17          5.5580     1.2500     0.8720 c3         1 0GV      -0.031700
      9 C18          3.4100     2.4440     1.3150 c3         1 0GV      -0.049100
     10 C9           1.5160     0.0000     0.0000 c3         1 0GV      -0.029700
     11 C19         -0.4630     1.4300     0.2860 c3         1 0GV      -0.020100
     12 C1          -0.5070    -0.3930    -1.3920 c3         1 0GV      -0.018400
     13 C2          -2.0350    -0.4430    -1.3910 c3         1 0GV      -0.054400
     14 C3          -2.5050    -1.5370    -0.4280 c3         1 0GV       0.193100
     15 O1          -3.9270    -1.6610    -0.5040 oh         1 0GV      -0.584800
     16 C4          -2.1000    -1.1540     0.9990 c3         1 0GV      -0.005200
     17 C5          -0.6050    -0.9020     1.0340 c2         1 0GV      -0.048400
     18 C6           0.1000    -1.4830     2.0040 ce         1 0GV      -0.244200
     19 C7           1.5440    -1.2440     2.1130 c          1 0GV       0.624300
     20 O7           2.2730    -2.0010     2.7180 o          1 0GV      -0.552100
     21 C8           2.0750     0.0000     1.4290 c3         1 0GV      -0.145700
     22 C20          6.0640     2.6880     0.9940 c3         1 0GV      -0.058700
     23 C21          5.8220     3.4270    -0.3240 c3         1 0GV      -0.027100
     24 C22          7.5610     2.6770     1.3060 c3         1 0GV      -0.033400
     25 C23          8.0420     4.1090     1.5500 c3         1 0GV      -0.043400
     26 C24          9.5400     4.0970     1.8620 c3         1 0GV      -0.026400
     27 C25         10.0210     5.5290     2.1060 c3         1 0GV      -0.055700
     28 C26         11.4880     5.5070     2.5400 c3         1 0GV       0.003900
     29 C27          9.8810     6.3420     0.8170 c3         1 0GV       0.003900
     30 H1           1.7040     2.0940    -0.3920 hc         1 0GV       0.028700
     31 H2           1.7080     1.0760    -1.8380 hc         1 0GV       0.028700
     32 H3           3.9630     2.0420    -1.3560 hc         1 0GV       0.024200
     33 H4           3.9730     0.2660    -1.2800 hc         1 0GV       0.024200
     34 H5           3.8910    -0.9360     0.7450 hc         1 0GV       0.045700
     35 H6           4.4240    -0.9900     3.0960 hc         1 0GV       0.029200
     36 H7           3.8920     0.7010     3.3230 hc         1 0GV       0.029200
     37 H8           6.4230    -0.3490     2.0620 hc         1 0GV       0.018700
     38 H9           6.1620     1.1660     2.9570 hc         1 0GV       0.018700
     39 H10          6.0700     0.7320     0.0700 hc         1 0GV       0.033700
     40 H11          3.7190     3.3530     0.8140 hc         1 0GV       0.023033
     41 H12          3.7240     2.4780     2.3510 hc         1 0GV       0.023033
     42 H13          2.3310     2.3540     1.2680 hc         1 0GV       0.023033
     43 H14          1.8430    -0.9160    -0.4780 hc         1 0GV       0.032700
     44 H15          0.0030     1.7850     1.1970 hc         1 0GV       0.017033
     45 H16         -0.1810     2.0730    -0.5380 hc         1 0GV       0.017033
     46 H17         -1.5400     1.4450     0.4030 hc         1 0GV       0.017033
     47 H18         -0.1170    -1.3690    -1.6540 hc         1 0GV       0.023200
     48 H19         -0.1740     0.3410    -2.1160 hc         1 0GV       0.023200
     49 H20         -2.3890    -0.6660    -2.3900 hc         1 0GV       0.029200
     50 H21         -2.4270     0.5140    -1.0680 hc         1 0GV       0.029200
     51 H22         -2.0390    -2.4770    -0.6950 h1         1 0GV       0.003700
     52 H23         -4.1510    -2.5360    -0.7770 ho         1 0GV       0.390000
     53 H24         -2.6260    -0.2550     1.2950 hc         1 0GV       0.034200
     54 H25         -2.3470    -1.9650     1.6740 hc         1 0GV       0.034200
     55 H26         -0.3980    -2.1170     2.7280 ha         1 0GV       0.128000
     56 H27          1.7680     0.8920     1.9620 hc         1 0GV       0.072700
     57 H28          5.5320     3.1910     1.7930 hc         1 0GV       0.042700
     58 H29          4.9190     4.0200    -0.2450 hc         1 0GV       0.013033
     59 H30          5.7120     2.7070    -1.1260 hc         1 0GV       0.013033
     60 H31          6.6640     4.0760    -0.5340 hc         1 0GV       0.013033
     61 H32          8.1020     2.2530     0.4690 hc         1 0GV       0.020200
     62 H33          7.7410     2.0800     2.1920 hc         1 0GV       0.020200
     63 H34          7.8620     4.7070     0.6650 hc         1 0GV       0.021200
     64 H35          7.5030     4.5330     2.3890 hc         1 0GV       0.021200
     65 H36          9.7200     3.5000     2.7470 hc         1 0GV       0.016700
     66 H37         10.0800     3.6730     1.0240 hc         1 0GV       0.016700
     67 H38          9.4210     5.9830     2.8850 hc         1 0GV       0.025700
     68 H39         11.5910     4.9050     3.4340 hc         1 0GV       0.002867
     69 H40         12.0930     5.0840     1.7470 hc         1 0GV       0.002867
     70 H41         11.8190     6.5180     2.7450 hc         1 0GV       0.002867
     71 H42         10.5670     7.1800     0.8430 hc         1 0GV       0.002867
     72 H43         10.1120     5.7120    -0.0340 hc         1 0GV       0.002867
     73 H44          8.8650     6.7090     0.7300 hc         1 0GV       0.002867
@<TRIPOS>BOND
     1     1    10 1   
     2     1    11 1   
     3     1    12 1   
     4     1    17 1   
     5     2     3 1   
     6     2    10 1   
     7     2    30 1   
     8     2    31 1   
     9     3     4 1   
    10     3    32 1   
    11     3    33 1   
    12     4     5 1   
    13     4     8 1   
    14     4     9 1   
    15     5     6 1   
    16     5    21 1   
    17     5    34 1   
    18     6     7 1   
    19     6    35 1   
    20     6    36 1   
    21     7     8 1   
    22     7    37 1   
    23     7    38 1   
    24     8    22 1   
    25     8    39 1   
    26     9    40 1   
    27     9    41 1   
    28     9    42 1   
    29    10    21 1   
    30    10    43 1   
    31    11    44 1   
    32    11    45 1   
    33    11    46 1   
    34    12    13 1   
    35    12    47 1   
    36    12    48 1   
    37    13    14 1   
    38    13    49 1   
    39    13    50 1   
    40    14    15 1   
    41    14    16 1   
    42    14    51 1   
    43    15    52 1   
    44    16    17 1   
    45    16    53 1   
    46    16    54 1   
    47    17    18 2   
    48    18    19 1   
    49    18    55 1   
    50    19    20 2   
    51    19    21 1   
    52    21    56 1   
    53    22    23 1   
    54    22    24 1   
    55    22    57 1   
    56    23    58 1   
    57    23    59 1   
    58    23    60 1   
    59    24    25 1   
    60    24    61 1   
    61    24    62 1   
    62    25    26 1   
    63    25    63 1   
    64    25    64 1   
    65    26    27 1   
    66    26    65 1   
    67    26    66 1   
    68    27    28 1   
    69    27    29 1   
    70    27    67 1   
    71    28    68 1   
    72    28    69 1   
    73    28    70 1   
    74    29    71 1   
    75    29    72 1   
    76    29    73 1   
@<TRIPOS>SUBSTRUCTURE
     1 0GV         1 TEMP              0 ****  ****    0 ROOT
