@<TRIPOS>MOLECULE
0GV
   73    76     1     0     0
SMALL
bcc


@<TRIPOS>ATOM
      1 C10          0.1310    -0.0220    -0.1000 c3         1 0GV      -0.016800
      2 C11          2.3750     0.7510    -1.0060 c3         1 0GV      -0.075400
      3 C12          3.8910     0.7020    -0.9250 c3         1 0GV      -0.067400
      4 C13          4.3600     0.9590     0.4970 c3         1 0GV      -0.047000
      5 C14          3.7080    -0.1370     1.3810 c3         1 0GV      -0.054700
      6 C15          4.4800    -0.0550     2.6900 c3         1 0GV      -0.073400
      7 C16          5.9000     0.3280     2.2700 c3         1 0GV      -0.079400
      8 C17          5.8620     0.6990     0.7720 c3         1 0GV      -0.053700
      9 C18          3.9870     2.3620     0.9430 c3         1 0GV      -0.083100
     10 C9           1.6680    -0.1820    -0.0290 c3         1 0GV      -0.044700
     11 C19         -0.2880     1.4320     0.0940 c3         1 0GV      -0.086100
     12 C1          -0.3260    -0.5040    -1.4860 c3         1 0GV      -0.068400
     13 C2          -1.8260    -0.6280    -1.6130 c3         1 0GV      -0.116400
     14 C3          -2.3730    -1.5830    -0.5600 c3         1 0GV       0.146100
     15 O1          -3.7960    -1.6210    -0.5900 oh         1 0GV      -0.599800
     16 C4          -1.9920    -1.1130     0.8400 c3         1 0GV      -0.054200
     17 C5          -0.5280    -0.8600     0.9680 c2         1 0GV      -0.033400
     18 C6           0.1360    -1.3360     2.0340 ce         1 0GV      -0.260200
     19 C7           1.5620    -1.0850     2.2860 c          1 0GV       0.571300
     20 O7           2.1690    -1.6830     3.1820 o          1 0GV      -0.532100
     21 C8           2.1970    -0.0320     1.4070 c3         1 0GV      -0.143700
     22 C20          6.8330     1.8260     0.4370 c3         1 0GV      -0.055700
     23 C21          6.7670     2.2060    -1.0300 c3         1 0GV      -0.091100
     24 C22          8.2610     1.4130     0.7890 c3         1 0GV      -0.080400
     25 C23          9.1610     2.6110     1.0120 c3         1 0GV      -0.079400
     26 C24         10.5730     2.1750     1.3410 c3         1 0GV      -0.076400
     27 C25         11.5100     3.3560     1.5490 c3         1 0GV      -0.067700
     28 C26         11.2700     4.0240     2.8860 c3         1 0GV      -0.089600
     29 C27         12.9520     2.9010     1.4450 c3         1 0GV      -0.089600
     30 H1           2.0410     1.8080    -0.8320 hc         1 0GV       0.042700
     31 H2           2.0720     0.4730    -2.0500 hc         1 0GV       0.042700
     32 H3           4.3150     1.4680    -1.6240 hc         1 0GV       0.043700
     33 H4           4.2590    -0.3020    -1.2640 hc         1 0GV       0.043700
     34 H5           3.9550    -1.1370     0.9160 hc         1 0GV       0.051700
     35 H6           4.4560    -1.0310     3.2340 hc         1 0GV       0.055200
     36 H7           4.0380     0.7190     3.3650 hc         1 0GV       0.055200
     37 H8           6.2640     1.1930     2.8790 hc         1 0GV       0.042200
     38 H9           6.6010    -0.5270     2.4360 hc         1 0GV       0.042200
     39 H10          6.1660    -0.2020     0.1700 hc         1 0GV       0.046700
     40 H11          4.4300     3.1180     0.2510 hc         1 0GV       0.035700
     41 H12          4.3710     2.5550     1.9750 hc         1 0GV       0.035700
     42 H13          2.8800     2.5100     0.9500 hc         1 0GV       0.035700
     43 H14          1.9040    -1.2400    -0.3470 hc         1 0GV       0.053700
     44 H15         -0.0440     2.0330    -0.8150 hc         1 0GV       0.041367
     45 H16         -1.3900     1.5010     0.2680 hc         1 0GV       0.041367
     46 H17          0.2360     1.8820     0.9710 hc         1 0GV       0.041367
     47 H18          0.0410     0.2180    -2.2620 hc         1 0GV       0.048700
     48 H19          0.1450    -1.5000    -1.7000 hc         1 0GV       0.048700
     49 H20         -2.3130     0.3740    -1.4920 hc         1 0GV       0.050700
     50 H21         -2.0860    -1.0080    -2.6350 hc         1 0GV       0.050700
     51 H22         -1.9730    -2.6210    -0.7400 h1         1 0GV       0.039700
     52 H23         -4.0470    -1.8770    -1.4840 ho         1 0GV       0.402000
     53 H24         -2.5510    -0.1650     1.0700 hc         1 0GV       0.070700
     54 H25         -2.3310    -1.8830     1.5830 hc         1 0GV       0.070700
     55 H26         -0.3680    -1.9560     2.7950 ha         1 0GV       0.150000
     56 H27          1.8910     0.9640     1.8340 hc         1 0GV       0.080700
     57 H28          6.5620     2.7280     1.0560 hc         1 0GV       0.050700
     58 H29          6.7490     1.2930    -1.6730 hc         1 0GV       0.033367
     59 H30          7.6560     2.8200    -1.3150 hc         1 0GV       0.033367
     60 H31          5.8520     2.8090    -1.2440 hc         1 0GV       0.033367
     61 H32          8.6760     0.7760    -0.0360 hc         1 0GV       0.042200
     62 H33          8.2640     0.7870     1.7200 hc         1 0GV       0.042200
     63 H34          8.7520     3.2350     1.8510 hc         1 0GV       0.039200
     64 H35          9.1720     3.2590     0.0960 hc         1 0GV       0.039200
     65 H36         10.5660     1.5370     2.2630 hc         1 0GV       0.039700
     66 H37         10.9630     1.5400     0.5020 hc         1 0GV       0.039700
     67 H38         11.3180     4.1110     0.7350 hc         1 0GV       0.045700
     68 H39         11.9610     4.8920     3.0140 hc         1 0GV       0.033033
     69 H40         10.2200     4.3940     2.9580 hc         1 0GV       0.033033
     70 H41         11.4500     3.3050     3.7220 hc         1 0GV       0.033033
     71 H42         13.6430     3.7620     1.6100 hc         1 0GV       0.033033
     72 H43         13.1550     2.4710     0.4350 hc         1 0GV       0.033033
     73 H44         13.1710     2.1190     2.2120 hc         1 0GV       0.033033
@<TRIPOS>BOND
     1     1    10 1   
     2     1    11 1   
     3     1    12 1   
     4     1    17 1   
     5     2     3 1   
     6     2    10 1   
     7     2    30 1   
     8     2    31 1   
     9     3     4 1   
    10     3    32 1   
    11     3    33 1   
    12     4     5 1   
    13     4     8 1   
    14     4     9 1   
    15     5     6 1   
    16     5    21 1   
    17     5    34 1   
    18     6     7 1   
    19     6    35 1   
    20     6    36 1   
    21     7     8 1   
    22     7    37 1   
    23     7    38 1   
    24     8    22 1   
    25     8    39 1   
    26     9    40 1   
    27     9    41 1   
    28     9    42 1   
    29    10    21 1   
    30    10    43 1   
    31    11    44 1   
    32    11    45 1   
    33    11    46 1   
    34    12    13 1   
    35    12    47 1   
    36    12    48 1   
    37    13    14 1   
    38    13    49 1   
    39    13    50 1   
    40    14    15 1   
    41    14    16 1   
    42    14    51 1   
    43    15    52 1   
    44    16    17 1   
    45    16    53 1   
    46    16    54 1   
    47    17    18 2   
    48    18    19 1   
    49    18    55 1   
    50    19    20 2   
    51    19    21 1   
    52    21    56 1   
    53    22    23 1   
    54    22    24 1   
    55    22    57 1   
    56    23    58 1   
    57    23    59 1   
    58    23    60 1   
    59    24    25 1   
    60    24    61 1   
    61    24    62 1   
    62    25    26 1   
    63    25    63 1   
    64    25    64 1   
    65    26    27 1   
    66    26    65 1   
    67    26    66 1   
    68    27    28 1   
    69    27    29 1   
    70    27    67 1   
    71    28    68 1   
    72    28    69 1   
    73    28    70 1   
    74    29    71 1   
    75    29    72 1   
    76    29    73 1   
@<TRIPOS>SUBSTRUCTURE
     1 0GV         1 TEMP              0 ****  ****    0 ROOT
