@<TRIPOS>MOLECULE
molecule
   59    62     1     0     0
SMALL
bcc


@<TRIPOS>ATOM
      1 CBD          0.0000     0.0000     0.0000 c3         1 0GX      -0.091100
      2 CAT          1.5300     0.0000     0.0000 c3         1 0GX      -0.081400
      3 CAS          2.0410     0.0000     1.4420 c3         1 0GX       0.123400
      4 OAR          3.4700    -0.0010     1.4410 os         1 0GX      -0.269900
      5 CAN          4.0860    -0.0010     2.6500 cc         1 0GX       0.217000
      6 SAO          3.2730    -0.0090     4.1500 ss         1 0GX      -0.149800
      7 CAM          5.4210    -0.0010     2.8260 cd         1 0GX      -0.127900
      8 Br1          6.6380    -0.0010     1.3790 br         1 0GX      -0.042100
      9 CAL          5.8320    -0.0020     4.1350 cd         1 0GX       0.055700
     10 CAP          7.2820    -0.0020     4.5470 c3         1 0GX      -0.040800
     11 CAK          4.7960    -0.0040     5.0290 cc         1 0GX      -0.171700
     12 CAI          4.9290    -0.0080     6.4410 c          1 0GX       0.743700
     13 OAJ          6.0270    -0.1500     6.9490 o          1 0GX      -0.607100
     14 NAE          3.8410     0.1470     7.2220 n          1 0GX      -0.502800
     15 CAD          2.4230     0.2690     6.8040 c3         1 0GX       0.111700
     16 CAC          1.7230    -1.0490     7.1730 c3         1 0GX      -0.086400
     17 CAG          1.8520     1.3800     7.7150 c3         1 0GX      -0.093900
     18 CAH          2.7490     1.3570     8.9720 c3         1 0GX      -0.093900
     19 CAA          3.7760     0.2280     8.7010 c3         1 0GX       0.111700
     20 CAF          3.1730    -1.0920     9.2040 c3         1 0GX      -0.086400
     21 CAB          1.7420    -1.2100     8.6960 c3         1 0GX      -0.034400
     22 CAU          1.1930    -2.5650     9.0630 ca         1 0GX      -0.101300
     23 CAZ          1.8140    -3.7100     8.6030 ca         1 0GX      -0.072000
     24 CAV          0.0700    -2.6620     9.8660 ca         1 0GX       0.190900
     25 FBA         -0.5360    -1.5430    10.3200 f          1 0GX      -0.106900
     26 CAW         -0.4340    -3.9070    10.2040 ca         1 0GX      -0.152000
     27 CAX          0.1860    -5.0520     9.7390 ca         1 0GX      -0.081000
     28 CAY          1.3110    -4.9530     8.9400 ca         1 0GX      -0.216300
     29 CBB          1.9890    -6.2020     8.4370 c3         1 0GX       0.163100
     30 NBC          3.0120    -6.6260     9.4020 nz         1 0GX      -0.811600
     31 H1          -0.3610     0.8830     0.5140 hc         1 0GX       0.041033
     32 H2          -0.3610    -0.8860     0.5080 hc         1 0GX       0.041033
     33 H3          -0.3610     0.0040    -1.0210 hc         1 0GX       0.041033
     34 H4           1.8910     0.8840    -0.5110 hc         1 0GX       0.063200
     35 H5           1.8910    -0.8840    -0.5110 hc         1 0GX       0.063200
     36 H6           1.6800     0.8850     1.9520 h1         1 0GX       0.039700
     37 H7           1.6790    -0.8840     1.9530 h1         1 0GX       0.039700
     38 H8           7.4880     0.8790     5.1420 hc         1 0GX       0.066367
     39 H9           7.4910    -0.8900     5.1320 hc         1 0GX       0.066367
     40 H10          7.9080     0.0040     3.6630 hc         1 0GX       0.066367
     41 H11          2.3240     0.5080     5.7520 h1         1 0GX       0.092200
     42 H12          0.6980    -1.0260     6.8230 hc         1 0GX       0.050450
     43 H13          2.2460    -1.8790     6.7140 hc         1 0GX       0.050450
     44 H14          1.9180     2.3430     7.2230 hc         1 0GX       0.061450
     45 H15          0.8250     1.1600     7.9810 hc         1 0GX       0.061450
     46 H16          3.2550     2.3070     9.0920 hc         1 0GX       0.061450
     47 H17          2.1600     1.1280     9.8520 hc         1 0GX       0.061450
     48 H18          4.7430     0.4360     9.1440 h1         1 0GX       0.092200
     49 H19          3.1750    -1.1020    10.2880 hc         1 0GX       0.050450
     50 H20          3.7600    -1.9240     8.8330 hc         1 0GX       0.050450
     51 H21          1.1320    -0.4380     9.1490 hc         1 0GX       0.089700
     52 H22          2.6950    -3.6350     7.9780 ha         1 0GX       0.149000
     53 H23         -1.3140    -3.9840    10.8300 ha         1 0GX       0.174000
     54 H24         -0.2070    -6.0260    10.0020 ha         1 0GX       0.142000
     55 H25          1.2540    -6.9890     8.3200 hx         1 0GX       0.112700
     56 H26          2.4560    -5.9990     7.4810 hx         1 0GX       0.112700
     57 H27          2.6210    -6.6260    10.3240 hn         1 0GX       0.455467
     58 H28          3.7860    -5.9930     9.3680 hn         1 0GX       0.455467
     59 HBC3         3.3250    -7.5490     9.1730 hn         1 0GX       0.455467
@<TRIPOS>BOND
     1    30    29 1   
     2    29    28 1   
     3     1     2 1   
     4    13    12 2   
     5    28    23 ar  
     6    28    27 ar  
     7     2     3 1   
     8     3     4 1   
     9    23    22 ar  
    10     6    11 1   
    11     6     5 1   
    12    16    15 1   
    13    16    21 1   
    14    12    11 1   
    15    12    14 1   
    16    27    26 ar  
    17    15    14 1   
    18    15    17 1   
    19    11     9 2   
    20    14    19 1   
    21     4     5 1   
    22    22    21 1   
    23    22    24 ar  
    24     5     7 2   
    25    21    20 1   
    26    26    24 ar  
    27    17    18 1   
    28     9     7 1   
    29     9    10 1   
    30    24    25 1   
    31     7     8 1   
    32    20    19 1   
    33    19    18 1   
    34     1    31 1   
    35     1    32 1   
    36     1    33 1   
    37     2    34 1   
    38     2    35 1   
    39     3    36 1   
    40     3    37 1   
    41    10    38 1   
    42    10    39 1   
    43    10    40 1   
    44    15    41 1   
    45    16    42 1   
    46    16    43 1   
    47    17    44 1   
    48    17    45 1   
    49    18    46 1   
    50    18    47 1   
    51    19    48 1   
    52    20    49 1   
    53    20    50 1   
    54    21    51 1   
    55    23    52 1   
    56    26    53 1   
    57    27    54 1   
    58    29    55 1   
    59    29    56 1   
    60    30    57 1   
    61    30    58 1   
    62    59    30 1   
@<TRIPOS>SUBSTRUCTURE
     1 0GX         1 TEMP              0 ****  ****    0 ROOT
