@<TRIPOS>MOLECULE
0GX
   59    62     1     0     0
SMALL
bcc


@<TRIPOS>ATOM
      1 CBD          0.0530    -0.4300    -0.1760 c3         1 0GX      -0.093100
      2 CAT          1.5170    -0.1280     0.0070 c3         1 0GX      -0.115400
      3 CAS          1.8170     0.2090     1.4520 c3         1 0GX       0.126400
      4 OAR          3.2220     0.4310     1.6810 os         1 0GX      -0.296900
      5 CAN          3.7230     1.5840     1.1420 cc         1 0GX       0.138000
      6 SAO          3.5060     3.1070     1.8560 ss         1 0GX       0.027200
      7 CAM          4.5920     1.6430     0.0600 cd         1 0GX      -0.094900
      8 Br1          5.1210     0.2120    -0.9790 br         1 0GX      -0.019100
      9 CAL          5.0630     2.9860    -0.1580 cd         1 0GX      -0.021300
     10 CAP          5.9700     3.3560    -1.2550 c3         1 0GX      -0.052800
     11 CAK          4.5370     3.8630     0.7760 cc         1 0GX      -0.193700
     12 CAI          4.7770     5.3200     0.7940 c          1 0GX       0.697700
     13 OAJ          3.9860     6.1260     0.2720 o          1 0GX      -0.565100
     14 NAE          5.8670     5.7950     1.5300 n          1 0GX      -0.441800
     15 CAD          6.4230     7.1340     1.2620 c3         1 0GX       0.075200
     16 CAC          6.8160     7.7550     2.6120 c3         1 0GX      -0.065900
     17 CAG          7.7050     6.8880     0.4170 c3         1 0GX      -0.107400
     18 CAH          8.1390     5.4680     0.7910 c3         1 0GX      -0.107400
     19 CAA          7.0690     4.9970     1.8180 c3         1 0GX       0.075200
     20 CAF          7.5360     5.3600     3.2390 c3         1 0GX      -0.065900
     21 CAB          7.7960     6.8640     3.3850 c3         1 0GX      -0.028400
     22 CAU          7.8040     7.2500     4.8330 ca         1 0GX      -0.092300
     23 CAZ          6.6510     7.1150     5.6060 ca         1 0GX      -0.080000
     24 CAV          8.9720     7.7590     5.4520 ca         1 0GX       0.187900
     25 FBA         10.1140     7.9040     4.7500 f          1 0GX      -0.104900
     26 CAW          8.9600     8.1220     6.8160 ca         1 0GX      -0.159000
     27 CAX          7.7950     7.9870     7.5590 ca         1 0GX      -0.068000
     28 CAY          6.6350     7.4860     6.9560 ca         1 0GX      -0.220300
     29 CBB          5.3960     7.3000     7.7540 c3         1 0GX       0.180100
     30 NBC          4.4120     8.4040     7.4790 nz         1 0GX      -0.846600
     31 H1          -0.5740     0.4500     0.1080 hc         1 0GX       0.040033
     32 H2          -0.2550    -1.3000     0.4540 hc         1 0GX       0.040033
     33 H3          -0.1550    -0.6790    -1.2450 hc         1 0GX       0.040033
     34 H4           2.1350    -1.0120    -0.3030 hc         1 0GX       0.060700
     35 H5           1.8180     0.7320    -0.6470 hc         1 0GX       0.060700
     36 H6           1.2360     1.1060     1.7900 h1         1 0GX       0.058700
     37 H7           1.6060    -0.6650     2.1280 h1         1 0GX       0.058700
     38 H8           6.9520     2.8300    -1.1460 hc         1 0GX       0.061033
     39 H9           5.5240     3.0630    -2.2410 hc         1 0GX       0.061033
     40 H10          6.1540     4.4600    -1.2660 hc         1 0GX       0.061033
     41 H11          5.6790     7.7820     0.7280 h1         1 0GX       0.097700
     42 H12          7.2940     8.7500     2.4220 hc         1 0GX       0.048450
     43 H13          5.8910     7.9310     3.2180 hc         1 0GX       0.048450
     44 H14          8.4920     7.6410     0.6570 hc         1 0GX       0.061950
     45 H15          7.4690     6.9630    -0.6710 hc         1 0GX       0.061950
     46 H16          9.1590     5.4470     1.2410 hc         1 0GX       0.061950
     47 H17          8.1360     4.7960    -0.1010 hc         1 0GX       0.061950
     48 H18          6.8680     3.8970     1.7400 h1         1 0GX       0.097700
     49 H19          6.7640     5.0240     3.9780 hc         1 0GX       0.048450
     50 H20          8.4820     4.7990     3.4560 hc         1 0GX       0.048450
     51 H21          8.8230     7.0590     2.9540 hc         1 0GX       0.079700
     52 H22          5.7450     6.6950     5.1370 ha         1 0GX       0.148000
     53 H23          9.8830     8.5070     7.2800 ha         1 0GX       0.178000
     54 H24          7.7980     8.2620     8.6260 ha         1 0GX       0.148000
     55 H25          4.8870     6.3270     7.4870 hx         1 0GX       0.112700
     56 H26          5.6150     7.3080     8.8610 hx         1 0GX       0.112700
     57 H27          4.1990     8.4340     6.4760 hn         1 0GX       0.458467
     58 H28          3.5480     8.2510     8.0050 hn         1 0GX       0.458467
     59 HBC3         4.8160     9.3070     7.7480 hn         1 0GX       0.458467
@<TRIPOS>BOND
     1     1     2 1   
     2     1    31 1   
     3     1    32 1   
     4     1    33 1   
     5     2     3 1   
     6     2    34 1   
     7     2    35 1   
     8     3     4 1   
     9     3    36 1   
    10     3    37 1   
    11     4     5 1   
    12     5     6 1   
    13     5     7 2   
    14     6    11 1   
    15     7     8 1   
    16     7     9 1   
    17     9    10 1   
    18     9    11 2   
    19    10    38 1   
    20    10    39 1   
    21    10    40 1   
    22    11    12 1   
    23    12    13 2   
    24    12    14 1   
    25    14    15 1   
    26    14    19 1   
    27    15    16 1   
    28    15    17 1   
    29    15    41 1   
    30    16    21 1   
    31    16    42 1   
    32    16    43 1   
    33    17    18 1   
    34    17    44 1   
    35    17    45 1   
    36    18    19 1   
    37    18    46 1   
    38    18    47 1   
    39    19    20 1   
    40    19    48 1   
    41    20    21 1   
    42    20    49 1   
    43    20    50 1   
    44    21    22 1   
    45    21    51 1   
    46    22    23 ar  
    47    22    24 ar  
    48    23    28 ar  
    49    23    52 1   
    50    24    25 1   
    51    24    26 ar  
    52    26    27 ar  
    53    26    53 1   
    54    27    28 ar  
    55    27    54 1   
    56    28    29 1   
    57    29    30 1   
    58    29    55 1   
    59    29    56 1   
    60    30    57 1   
    61    30    58 1   
    62    30    59 1   
@<TRIPOS>SUBSTRUCTURE
     1 0GX         1 TEMP              0 ****  ****    0 ROOT
