@<TRIPOS>MOLECULE
molecule
   17    16     1     0     0
SMALL
bcc


@<TRIPOS>ATOM
      1 C2           0.0000     0.0000     0.0000 c          1 0GY       0.849800
      2 C3           1.4680     0.0000     0.0000 ce         1 0GY      -0.569200
      3 C4           2.1500     0.0000     1.1810 cf         1 0GY       0.090800
      4 C5           1.4230    -0.1200     2.4470 cf         1 0GY      -0.150000
      5 C6           1.4140     0.9140     3.3240 ce         1 0GY       0.009900
      6 O6B          0.7730     1.7790     5.5180 o          1 0GY      -0.893300
      7 C6A          0.7820     0.7520     4.6460 c          1 0GY       0.886800
      8 O6A          0.2690    -0.3060     4.9500 o          1 0GY      -0.893300
      9 O6           1.9860     2.0950     2.9850 oh         1 0GY      -0.500100
     10 C4A          3.6270     0.1210     1.1830 c          1 0GY       0.880800
     11 O4A          4.2930     0.2200     2.3500 o          1 0GY      -0.859800
     12 O4B          4.2370     0.1320     0.1340 o          1 0GY      -0.859800
     13 O2          -0.6740     0.1020    -1.1640 o          1 0GY      -0.892800
     14 O1          -0.6080    -0.0960     1.0480 o          1 0GY      -0.892800
     15 H1           0.8950    -0.9120     0.1200 ha         1 0GY       0.265000
     16 H2           0.9660    -1.0640     2.7190 ha         1 0GY       0.146000
     17 H4           1.4090     2.8030     3.2220 ho         1 0GY       0.381000
@<TRIPOS>BOND
     1     8     7 1   
     2    12    10 1   
     3     7     6 1   
     4     7     5 1   
     5     5     9 1   
     6     5     4 2   
     7    10    11 1   
     8    10     3 1   
     9     4     3 1   
    10     3     2 2   
    11     2     1 1   
    12    14     1 1   
    13     1    13 1   
    14     2    15 1   
    15     4    16 1   
    16     9    17 1   
@<TRIPOS>SUBSTRUCTURE
     1 0GY         1 TEMP              0 ****  ****    0 ROOT
