@<TRIPOS>MOLECULE
0GY
   17    17     1     0     0
SMALL
bcc


@<TRIPOS>ATOM
      1 C2           0.0000     0.0000     0.0000 c2         1 0GY       0.426000
      2 C3           1.4680     0.0000     0.0000 c2         1 0GY      -0.370000
      3 C4           2.1500     0.0000     1.1810 c3         1 0GY      -0.068000
      4 C5           1.4230    -0.1200     2.4470 c2         1 0GY      -0.455000
      5 C6           1.4140     0.9140     3.3240 c2         1 0GY       0.141000
      6 O6B          0.7730     1.7790     5.5180 o          1 0GY      -0.652000
      7 C6A          0.7820     0.7520     4.6460 c2         1 0GY       0.419000
      8 O6A          0.2690    -0.3060     4.9500 o          1 0GY      -0.652000
      9 O6           1.9860     2.0950     2.9850 oh         1 0GY      -0.265000
     10 C4A          3.6270     0.1210     1.1830 c2         1 0GY       0.444000
     11 O4A          4.2930     0.2200     2.3500 o          1 0GY      -0.663500
     12 O4B          4.2370     0.1320     0.1340 o          1 0GY      -0.663500
     13 O2          -0.6740     0.1020    -1.1640 o          1 0GY      -0.647000
     14 O1          -0.6080    -0.0960     1.0480 o          1 0GY      -0.647000
     15 H1           2.0090    -0.0250    -0.9380 ha         1 0GY       0.107000
     16 H2           0.9920     0.3690     1.5820 DU         1 0GY       0.372000
     17 H4           1.4880     2.8040     3.3580 ho         1 0GY       0.173000
@<TRIPOS>BOND
     1     1     2 1   
     2     1    13 1   
     3     1    14 1   
     4     2     3 1   
     5     2    15 1   
     6     3     4 1   
     7     3    10 1   
     8     3    16 1   
     9     4     5 1   
    10     4    16 1   
    11     5     7 1   
    12     5     9 1   
    13     6     7 1   
    14     7     8 1   
    15     9    17 1   
    16    10    11 1   
    17    10    12 1   
@<TRIPOS>SUBSTRUCTURE
     1 0GY         1 TEMP              0 ****  ****    0 ROOT
