@<TRIPOS>MOLECULE
0GY
   17    16     1     0     0
SMALL
bcc


@<TRIPOS>ATOM
      1 C2           0.2480     1.1230    -0.3920 c          1 0GY       0.906800
      2 C3           1.4970     0.3620    -0.0670 ce         1 0GY      -0.214200
      3 C4           1.9760    -0.1630     1.0720 cf         1 0GY      -0.106200
      4 C5           1.3000    -0.1180     2.3630 cf         1 0GY      -0.095000
      5 C6           0.8500    -1.1330     3.1260 ce         1 0GY      -0.042100
      6 O6B         -0.1700    -2.0650     5.0680 o          1 0GY      -0.882300
      7 C6A          0.2160    -0.9890     4.4920 c          1 0GY       0.893800
      8 O6A          0.0780     0.1360     5.0540 o          1 0GY      -0.882300
      9 O6           0.9450    -2.4450     2.6800 oh         1 0GY      -0.534100
     10 C4A          3.3880    -0.7380     1.0300 c          1 0GY       0.912800
     11 O4A          3.7080    -1.5650     0.1170 o          1 0GY      -0.889800
     12 O4B          4.2620    -0.3310     1.8590 o          1 0GY      -0.889800
     13 O2          -0.6470     0.5810    -1.1210 o          1 0GY      -0.896800
     14 O1           0.1400     2.3480    -0.0600 o          1 0GY      -0.896800
     15 H1           2.1210     0.2410    -0.9740 ha         1 0GY       0.089000
     16 H2           1.1520     0.9000     2.7690 ha         1 0GY       0.130000
     17 H4           0.5970    -3.0000     3.3970 ho         1 0GY       0.398000
@<TRIPOS>BOND
     1     1     2 1   
     2     1    13 1   
     3     1    14 1   
     4     2     3 2   
     5     2    15 1   
     6     3     4 1   
     7     3    10 1   
     8     4     5 2   
     9     4    16 1   
    10     5     7 1   
    11     5     9 1   
    12     6     7 1   
    13     7     8 1   
    14     9    17 1   
    15    10    11 1   
    16    10    12 1   
@<TRIPOS>SUBSTRUCTURE
     1 0GY         1 TEMP              0 ****  ****    0 ROOT
