@<TRIPOS>MOLECULE
0GZ
   15    15     1     0     0
SMALL
bcc


@<TRIPOS>ATOM
      1 C8          -0.0770     0.2050    -0.0220 c          1 0GZ       0.899800
      2 C6           3.7320    -0.0510     0.0440 cc         1 0GZ       0.068900
      3 C4           1.3660     0.0590    -0.4830 cd         1 0GZ      -0.003200
      4 C2           3.0400    -0.2360    -2.2270 c          1 0GZ       0.703800
      5 C5           2.4390     0.0810     0.4620 cd         1 0GZ      -0.261000
      6 C3           1.6710    -0.0980    -1.8050 cc         1 0GZ      -0.325200
      7 O10         -0.9910     0.1960    -0.9000 o          1 0GZ      -0.839800
      8 O9          -0.3140     0.3310     1.2130 o          1 0GZ      -0.839800
      9 O7           3.5060    -0.3860    -3.3720 o          1 0GZ      -0.705500
     10 O1           4.0590    -0.2090    -1.2800 os         1 0GZ      -0.310200
     11 O13          5.5110     1.0690     1.1880 o          1 0GZ      -0.820800
     12 O12          5.3610    -1.1490     1.4110 o          1 0GZ      -0.820800
     13 H1           2.1930     0.2060     1.5260 ha         1 0GZ       0.167000
     14 H2           0.8890    -0.1220    -2.5750 ha         1 0GZ       0.155000
     15 C11          4.9720    -0.0440     0.9490 c          1 0GZ       0.932800
@<TRIPOS>BOND
     1     1     3 1   
     2     1     7 1   
     3     1     8 1   
     4     2     5 2   
     5     2    10 1   
     6     2    15 1   
     7     3     5 1   
     8     3     6 2   
     9     4     6 1   
    10     4     9 2   
    11     4    10 1   
    12     5    13 1   
    13     6    14 1   
    14    11    15 1   
    15    12    15 1   
@<TRIPOS>SUBSTRUCTURE
     1 0GZ         1 TEMP              0 ****  ****    0 ROOT
