@<TRIPOS>MOLECULE
molecule
   15    15     1     0     0
SMALL
bcc


@<TRIPOS>ATOM
      1 C8           0.0000     0.0000     0.0000 c          1 0GZ       0.882800
      2 C6           3.7620     0.0000     0.0000 cc         1 0GZ       0.045900
      3 C4           1.4020    -0.2170    -0.4310 cd         1 0GZ      -0.024200
      4 C2           3.1210    -0.8470    -2.0360 c          1 0GZ       0.720800
      5 C5           2.4840     0.0000     0.4610 cd         1 0GZ      -0.218000
      6 C3           1.6980    -0.6400    -1.7170 cc         1 0GZ      -0.331200
      7 O10         -0.2640     0.4100     1.2550 o          1 0GZ      -0.845800
      8 O9          -0.9100    -0.1880    -0.7800 o          1 0GZ      -0.845800
      9 O7           3.4660    -1.6210    -2.9100 o          1 0GZ      -0.664500
     10 O1           4.0260    -0.1500    -1.3160 os         1 0GZ      -0.296200
     11 O13          6.1490     0.1760     0.5030 o          1 0GZ      -0.829800
     12 O12          4.6510     0.3050     2.1360 o          1 0GZ      -0.829800
     13 H1           2.2900     0.1660     1.5140 ha         1 0GZ       0.186000
     14 H2           0.9800    -0.4930    -2.5140 ha         1 0GZ       0.152000
     15 C11          4.8780     0.1700     0.9510 c          1 0GZ       0.896800
@<TRIPOS>BOND
     1    12    15 1
     2     8     1 1
     3    15    11 1
     4    15     2 1
     5     5     2 2
     6     5     3 1
     7     1     7 1
     8     1     3 1
     9     2    10 1
    10     3     6 2
    11    10     4 1
    12     6     4 1
    13     4     9 2
    14     5    13 1
    15     6    14 1
@<TRIPOS>SUBSTRUCTURE
     1 0GZ         1 TEMP              0 ****  ****    0 ROOT
