@<TRIPOS>MOLECULE
0H3
   64    66     1     0     0
SMALL
bcc


@<TRIPOS>ATOM
      1 N3          -0.2080    -0.3490    -0.0200 n          1 0H3      -0.343000
      2 C4          -0.5830     4.1090     5.3640 c3         1 0H3      -0.116100
      3 N2           3.9690     0.3060     0.1780 nb         1 0H3      -0.663000
      4 C7           3.3600     0.0700    -1.0380 cp         1 0H3       0.582800
      5 C6           3.2250     0.2670     1.2680 ca         1 0H3       0.465200
      6 C9           1.8260     0.0150     1.2830 ca         1 0H3      -0.452200
      7 C13         -0.9410    -0.4500    -1.2720 c3         1 0H3       0.079000
      8 C20          3.8450    -0.7060    -3.3620 ca         1 0H3       0.473200
      9 C21          6.1140     0.8540    -3.4820 ca         1 0H3      -0.272300
     10 C8           1.9810    -0.1700    -1.1420 ca         1 0H3      -0.289300
     11 N5           4.5530    -0.7430    -4.5000 nb         1 0H3      -0.734000
     12 C18          4.1900     0.0820    -2.2390 cp         1 0H3      -0.361800
     13 C16          1.4330    -3.8140    -3.6300 c3         1 0H3      -0.084400
     14 C19          5.3620     0.8640    -2.3190 ca         1 0H3      -0.009000
     15 O1           1.0200     2.2740     5.4000 os         1 0H3      -0.480600
     16 C1           0.5630     3.4490     6.1020 c3         1 0H3       0.152100
     17 C2           0.0670     1.2220     5.3580 c3         1 0H3       0.109400
     18 C3           1.7760     4.3560     6.1890 c3         1 0H3      -0.116100
     19 C5           0.8470    -0.0500     5.0120 c3         1 0H3       0.116800
     20 C10          1.1690    -0.1800     0.0220 ca         1 0H3       0.192600
     21 C11         -0.9570    -0.4350     1.1920 c          1 0H3       0.830900
     22 N4          -0.2970    -0.2810     2.4530 nc         1 0H3      -0.615100
     23 C12          0.9930    -0.0670     2.4650 cd         1 0H3       0.635800
     24 O2          -2.1810    -0.6300     1.1640 o          1 0H3      -0.529500
     25 C14         -1.1030    -1.8710    -1.8220 c3         1 0H3       0.110400
     26 O3           0.1480    -2.2580    -2.3770 os         1 0H3      -0.451600
     27 C15          0.0970    -3.5690    -2.9540 c3         1 0H3       0.128400
     28 C17          1.5360    -3.0990    -4.9520 c3         1 0H3      -0.100100
     29 C22          5.6710     0.0340    -4.5590 ca         1 0H3       0.669600
     30 O4           6.4630     0.0780    -5.6750 os         1 0H3      -0.429100
     31 C23          6.0860    -0.7200    -6.8030 c3         1 0H3       0.120700
     32 N1           1.6810     0.0990     3.7770 ny         1 0H3      -0.728000
     33 H8          -0.3070     4.2970     4.2990 hc         1 0H3       0.055200
     34 H9          -1.4940     3.4630     5.3890 hc         1 0H3       0.055200
     35 H7          -0.8260     5.0850     5.8490 hc         1 0H3       0.055200
     36 H12          3.7840     0.4550     2.2040 h4         1 0H3       0.010100
     37 H15         -0.4310     0.1940    -2.0420 h1         1 0H3       0.095200
     38 H16         -1.9790    -0.0390    -1.0900 h1         1 0H3       0.095200
     39 H27          2.9550    -1.3690    -3.3540 h4         1 0H3       0.039100
     40 H28          7.0290     1.4510    -3.5950 ha         1 0H3       0.175000
     41 H14          1.5360    -0.3800    -2.1300 ha         1 0H3       0.194000
     42 H22          2.2580    -3.4790    -2.9480 hc         1 0H3       0.053200
     43 H21          1.5470    -4.9200    -3.7840 hc         1 0H3       0.053200
     44 H26          5.6810     1.4870    -1.4680 ha         1 0H3       0.160000
     45 H1           0.2350     3.1350     7.1330 h1         1 0H3       0.052700
     46 H3          -0.4210     1.0700     6.3590 h1         1 0H3       0.081700
     47 H2          -0.7180     1.4530     4.5900 h1         1 0H3       0.081700
     48 H5           2.0960     4.6820     5.1710 hc         1 0H3       0.055200
     49 H6           2.6260     3.8240     6.6780 hc         1 0H3       0.055200
     50 H4           1.5130     5.2570     6.7930 hc         1 0H3       0.055200
     51 H11          0.1310    -0.9120     4.8960 hx         1 0H3       0.117700
     52 H10          1.5740    -0.2760     5.8470 hx         1 0H3       0.117700
     53 H13          2.0870     1.0510     3.7840 hn         1 0H3       0.475300
     54 H18         -1.8870    -1.8490    -2.6270 h1         1 0H3       0.056700
     55 H17         -1.4130    -2.5950    -1.0230 h1         1 0H3       0.056700
     56 H19         -0.0820    -4.3150    -2.1350 h1         1 0H3       0.038200
     57 H20         -0.7460    -3.6210    -3.6940 h1         1 0H3       0.038200
     58 H25          2.5660    -3.2050    -5.3720 hc         1 0H3       0.042700
     59 H24          0.8090    -3.5200    -5.6880 hc         1 0H3       0.042700
     60 H23          1.3150    -2.0110    -4.8250 hc         1 0H3       0.042700
     61 H31          6.0870    -1.8020    -6.5320 h1         1 0H3       0.060367
     62 H29          6.8930    -0.4890    -7.5450 h1         1 0H3       0.060367
     63 H30          5.0860    -0.4070    -7.1860 h1         1 0H3       0.060367
     64 H121         2.4410    -0.5940     3.8000 hn         1 0H3       0.475300
@<TRIPOS>BOND
     1     1     7 1   
     2     1    20 1   
     3     1    21 1   
     4     2    16 1   
     5     2    33 1   
     6     2    34 1   
     7     2    35 1   
     8     3     4 ar  
     9     3     5 ar  
    10     4    10 ar  
    11     4    12 1   
    12     5     6 ar  
    13     5    36 1   
    14     6    20 ar  
    15     6    23 1   
    16     7    25 1   
    17     7    37 1   
    18     7    38 1   
    19     8    11 ar  
    20     8    12 ar  
    21     8    39 1   
    22     9    14 ar  
    23     9    29 ar  
    24     9    40 1   
    25    10    20 ar  
    26    10    41 1   
    27    11    29 ar  
    28    12    14 ar  
    29    13    27 1   
    30    13    28 1   
    31    13    42 1   
    32    13    43 1   
    33    14    44 1   
    34    15    16 1   
    35    15    17 1   
    36    16    18 1   
    37    16    45 1   
    38    17    19 1   
    39    17    46 1   
    40    17    47 1   
    41    18    48 1   
    42    18    49 1   
    43    18    50 1   
    44    19    32 1   
    45    19    51 1   
    46    19    52 1   
    47    21    22 1   
    48    21    24 2   
    49    22    23 2   
    50    23    32 1   
    51    25    26 1   
    52    25    54 1   
    53    25    55 1   
    54    26    27 1   
    55    27    56 1   
    56    27    57 1   
    57    28    58 1   
    58    28    59 1   
    59    28    60 1   
    60    29    30 1   
    61    30    31 1   
    62    31    61 1   
    63    31    62 1   
    64    31    63 1   
    65    32    53 1   
    66    32    64 1   
@<TRIPOS>SUBSTRUCTURE
     1 0H3         1 TEMP              0 ****  ****    0 ROOT
