@<TRIPOS>MOLECULE
molecule
   63    65     1     0     0
SMALL
bcc


@<TRIPOS>ATOM
      1 N3           0.0000     0.0000     0.0000 n          1 0H3      -0.363000
      2 C4           2.8270     1.9700     8.4800 c3         1 0H3      -0.104100
      3 N2           4.1210     0.0020     0.1230 nb         1 0H3      -0.734000
      4 C7           3.5160     0.0020    -1.0630 cp         1 0H3       0.554800
      5 C6           3.4490     0.0020     1.2550 ca         1 0H3       0.498200
      6 C9           2.0550     0.0000     1.2390 ca         1 0H3      -0.406200
      7 C13         -0.7320     0.0050    -1.2690 c3         1 0H3       0.100000
      8 C20          3.7320     0.1070    -3.5480 ca         1 0H3       0.482200
      9 C21          6.4530    -0.0970    -3.4000 ca         1 0H3      -0.278300
     10 C8           2.1280     0.0010    -1.1660 ca         1 0H3      -0.321300
     11 N5           4.4590     0.1140    -4.6470 nb         1 0H3      -0.775000
     12 C18          4.3360     0.0030    -2.2970 cp         1 0H3      -0.326800
     13 C16         -3.0890    -4.0220    -0.0480 c3         1 0H3      -0.081400
     14 C19          5.7310    -0.1020    -2.2230 ca         1 0H3      -0.018000
     15 O1           2.6790     1.2210     6.1870 os         1 0H3      -0.429600
     16 C1           3.5640     1.3240     7.3040 c3         1 0H3       0.138100
     17 C2           1.9390     0.0000     6.1420 c3         1 0H3       0.115400
     18 C3           4.7690     2.1850     6.9230 c3         1 0H3      -0.104100
     19 C5           1.0290    -0.0000     4.9120 c3         1 0H3       0.240800
     20 C10          1.3770     0.0000     0.0000 ca         1 0H3       0.157600
     21 C11         -0.6750    -0.0010     1.1650 c          1 0H3       0.857900
     22 N4          -0.0700    -0.0010     2.3520 nc         1 0H3      -0.754100
     23 C12          1.2510     0.0000     2.4660 cd         1 0H3       0.773800
     24 O2          -1.8930    -0.0010     1.1320 o          1 0H3      -0.605500
     25 C14         -0.9870    -1.4350    -1.7180 c3         1 0H3       0.119400
     26 O3          -1.8550    -2.0790    -0.7840 os         1 0H3      -0.403600
     27 C15         -2.1570    -3.4360    -1.1110 c3         1 0H3       0.136400
     28 C17         -3.4140    -5.4760    -0.4000 c3         1 0H3      -0.092100
     29 C22          5.7780     0.0220    -4.6100 ca         1 0H3       0.671600
     30 O4           6.4820     0.0330    -5.7700 os         1 0H3      -0.438100
     31 C23          5.7320     0.1460    -6.9810 c3         1 0H3       0.135700
     32 H8           3.5480     2.3150     9.2120 hc         1 0H3       0.043700
     33 H9           2.2440     2.8100     8.1240 hc         1 0H3       0.043700
     34 H7           2.1690     1.2420     8.9380 hc         1 0H3       0.043700
     35 H12          3.9790     0.0020     2.2000 h4         1 0H3       0.023100
     36 H15         -0.1470     0.5190    -2.0220 h1         1 0H3       0.077200
     37 H16         -1.6790     0.5150    -1.1380 h1         1 0H3       0.077200
     38 H27          2.6540     0.1850    -3.6170 h4         1 0H3       0.024100
     39 H28          7.5330    -0.1740    -3.3810 ha         1 0H3       0.155000
     40 H14          1.6450     0.0000    -2.1350 ha         1 0H3       0.150000
     41 H22         -2.6020    -3.9850     0.9190 hc         1 0H3       0.058200
     42 H21         -4.0050    -3.4460    -0.0140 hc         1 0H3       0.058200
     43 H26          6.2300    -0.1940    -1.2660 ha         1 0H3       0.167000
     44 H1           3.9020     0.3350     7.5890 h1         1 0H3       0.031700
     45 H3           2.6250    -0.8360     6.0840 h1         1 0H3       0.034200
     46 H2           1.3350    -0.0900     7.0370 h1         1 0H3       0.034200
     47 H5           5.3000     1.7200     6.1010 hc         1 0H3       0.043700
     48 H6           4.4300     3.1690     6.6230 hc         1 0H3       0.043700
     49 H4           5.4320     2.2760     7.7750 hc         1 0H3       0.043700
     50 H11          0.4040    -0.8850     4.9250 h1         1 0H3       0.074200
     51 H10          0.4030     0.8840     4.9250 h1         1 0H3       0.074200
     52 H13          2.8480    -0.0300     3.7690 hn         1 0H3       0.452800
     53 H18         -1.4490    -1.4320    -2.6970 h1         1 0H3       0.027200
     54 H17         -0.0460    -1.9700    -1.7640 h1         1 0H3       0.027200
     55 H19         -1.2400    -4.0130    -1.1450 h1         1 0H3       0.018700
     56 H20         -2.6430    -3.4750    -2.0790 h1         1 0H3       0.018700
     57 H25         -2.4980    -6.0530    -0.4320 hc         1 0H3       0.034033
     58 H24         -3.8990    -5.5130    -1.3680 hc         1 0H3       0.034033
     59 H23         -4.0750    -5.8900     0.3510 hc         1 0H3       0.034033
     60 H31          6.4100     0.1450    -7.8270 h1         1 0H3       0.048033
     61 H29          5.1680     1.0710    -6.9720 h1         1 0H3       0.048033
     62 H30          5.0500    -0.6920    -7.0640 h1         1 0H3       0.048033
     63 N1           1.8500    -0.0000     3.6980 nu         1 0H3      -0.837200
@<TRIPOS>BOND
     1    28    13 1
     2    31    30 1
     3    27    13 1
     4    27    26 1
     5    11    29 ar
     6    11     8 ar
     7    25    26 1
     8    25     7 1
     9    30    29 1
    10    29     9 ar
    11     8    12 ar
    12     7     1 1
    13     9    14 ar
    14    12    14 ar
    15    12     4 1
    16    10     4 ar
    17    10    20 ar
    18     1    20 1
    19     1    21 1
    20    24    21 2
    21     4     3 ar
    22    20     6 ar
    23    21    22 1
    24     3     5 ar
    25     6     5 ar
    26     6    23 1
    27    22    23 2
    28    23    63 1
    29    63    19 1
    30     2    16 1
    31    19    17 1
    32    17    15 1
    33    15    16 1
    34    16    18 1
    35     2    32 1
    36     2    33 1
    37     2    34 1
    38     5    35 1
    39     7    36 1
    40     7    37 1
    41     8    38 1
    42     9    39 1
    43    10    40 1
    44    13    41 1
    45    13    42 1
    46    14    43 1
    47    16    44 1
    48    17    45 1
    49    17    46 1
    50    18    47 1
    51    18    48 1
    52    18    49 1
    53    19    50 1
    54    19    51 1
    55    63    52 1
    56    25    53 1
    57    25    54 1
    58    27    55 1
    59    27    56 1
    60    28    57 1
    61    28    58 1
    62    28    59 1
    63    31    60 1
    64    31    61 1
    65    31    62 1
@<TRIPOS>SUBSTRUCTURE
     1 0H3         1 TEMP              0 ****  ****    0 ROOT
