@<TRIPOS>MOLECULE
0H3
   63    65     1     0     0
SMALL
bcc


@<TRIPOS>ATOM
      1 N3           0.0000     0.0000     0.0000 n          1 0H3       0.040000
      2 C4           2.8270     1.9700     8.4800 c3         1 0H3      -0.014600
      3 N2           4.1210     0.0020     0.1230 nb         1 0H3      -0.625000
      4 C7           3.5160     0.0020    -1.0630 cp         1 0H3       0.522800
      5 C6           3.4490     0.0020     1.2550 ca         1 0H3       0.483200
      6 C9           2.0550     0.0000     1.2390 ca         1 0H3      -0.399200
      7 C13         -0.7320     0.0050    -1.2690 c3         1 0H3       0.018000
      8 C20          3.7320     0.1070    -3.5480 ca         1 0H3       0.462200
      9 C21          6.4530    -0.0970    -3.4000 ca         1 0H3      -0.259300
     10 C8           2.1280     0.0010    -1.1660 ca         1 0H3      -0.305300
     11 N5           4.4590     0.1140    -4.6470 nb         1 0H3      -0.668000
     12 C18          4.3360     0.0030    -2.2970 cp         1 0H3      -0.336800
     13 C16         -3.0890    -4.0220    -0.0480 c3         1 0H3      -0.034400
     14 C19          5.7310    -0.1020    -2.2230 ca         1 0H3       0.011000
     15 O1           2.6790     1.2210     6.1870 os         1 0H3      -0.415600
     16 C1           3.5640     1.3240     7.3040 c3         1 0H3       0.178100
     17 C2           1.9390     0.0000     6.1420 c3         1 0H3       0.193400
     18 C3           4.7690     2.1850     6.9230 c3         1 0H3      -0.014600
     19 C5           1.0290    -0.0000     4.9120 c3         1 0H3       0.153800
     20 C10          1.3770     0.0000     0.0000 ca         1 0H3       0.017600
     21 C11         -0.6750    -0.0010     1.1650 c          1 0H3       0.735900
     22 N4          -0.0700    -0.0010     2.3520 nc         1 0H3      -0.685100
     23 C12          1.2510     0.0000     2.4660 cd         1 0H3       0.589800
     24 O2          -1.8930    -0.0010     1.1320 o          1 0H3      -0.656500
     25 C14         -0.9870    -1.4350    -1.7180 c3         1 0H3       0.191400
     26 O3          -1.8550    -2.0790    -0.7840 os         1 0H3      -0.387600
     27 C15         -2.1570    -3.4360    -1.1110 c3         1 0H3       0.208400
     28 C17         -3.4140    -5.4760    -0.4000 c3         1 0H3       0.009900
     29 C22          5.7780     0.0220    -4.6100 ca         1 0H3       0.636600
     30 O4           6.4820     0.0330    -5.7700 os         1 0H3      -0.429100
     31 C23          5.7320     0.1460    -6.9810 c3         1 0H3       0.254700
     32 H8           3.5480     2.3150     9.2120 hc         1 0H3       0.010867
     33 H9           2.2440     2.8100     8.1240 hc         1 0H3       0.010867
     34 H7           2.1690     1.2420     8.9380 hc         1 0H3       0.010867
     35 H12          3.9790     0.0020     2.2000 h4         1 0H3      -0.021900
     36 H15         -0.1470     0.5190    -2.0220 h1         1 0H3       0.050200
     37 H16         -1.6790     0.5150    -1.1380 h1         1 0H3       0.050200
     38 H27          2.6540     0.1850    -3.6170 h4         1 0H3      -0.018900
     39 H28          7.5330    -0.1740    -3.3810 ha         1 0H3       0.128000
     40 H14          1.6450     0.0000    -2.1350 ha         1 0H3       0.140000
     41 H22         -2.6020    -3.9850     0.9190 hc         1 0H3       0.025700
     42 H21         -4.0050    -3.4460    -0.0140 hc         1 0H3       0.025700
     43 H26          6.2300    -0.1940    -1.2660 ha         1 0H3       0.130000
     44 H1           3.9020     0.3350     7.5890 h1         1 0H3       0.002700
     45 H3           2.6250    -0.8360     6.0840 h1         1 0H3      -0.000300
     46 H2           1.3350    -0.0900     7.0370 h1         1 0H3      -0.000300
     47 H5           5.3000     1.7200     6.1010 hc         1 0H3       0.010867
     48 H6           4.4300     3.1690     6.6230 hc         1 0H3       0.010867
     49 H4           5.4320     2.2760     7.7750 hc         1 0H3       0.010867
     50 H11          0.4040    -0.8850     4.9250 h1         1 0H3       0.043700
     51 H10          0.4030     0.8840     4.9250 h1         1 0H3       0.043700
     52 H13          2.8480    -0.0300     3.7690 hn         1 0H3       0.299800
     53 H18         -1.4490    -1.4320    -2.6970 h1         1 0H3      -0.005800
     54 H17         -0.0460    -1.9700    -1.7640 h1         1 0H3      -0.005800
     55 H19         -1.2400    -4.0130    -1.1450 h1         1 0H3      -0.013300
     56 H20         -2.6430    -3.4750    -2.0790 h1         1 0H3      -0.013300
     57 H25         -2.4980    -6.0530    -0.4320 hc         1 0H3       0.000033
     58 H24         -3.8990    -5.5130    -1.3680 hc         1 0H3       0.000033
     59 H23         -4.0750    -5.8900     0.3510 hc         1 0H3       0.000033
     60 H31          6.4100     0.1450    -7.8270 h1         1 0H3       0.000700
     61 H29          5.1680     1.0710    -6.9720 h1         1 0H3       0.000700
     62 H30          5.0500    -0.6920    -7.0640 h1         1 0H3       0.000700
     63 N1           1.8500    -0.0000     3.6980 nu         1 0H3      -0.408200
@<TRIPOS>BOND
     1     1     7 1   
     2     1    20 1   
     3     1    21 1   
     4     2    16 1   
     5     2    32 1   
     6     2    33 1   
     7     2    34 1   
     8     3     4 ar  
     9     3     5 ar  
    10     4    10 ar  
    11     4    12 1   
    12     5     6 ar  
    13     5    35 1   
    14     6    20 ar  
    15     6    23 1   
    16     7    25 1   
    17     7    36 1   
    18     7    37 1   
    19     8    11 ar  
    20     8    12 ar  
    21     8    38 1   
    22     9    14 ar  
    23     9    29 ar  
    24     9    39 1   
    25    10    20 ar  
    26    10    40 1   
    27    11    29 ar  
    28    12    14 ar  
    29    13    27 1   
    30    13    28 1   
    31    13    41 1   
    32    13    42 1   
    33    14    43 1   
    34    15    16 1   
    35    15    17 1   
    36    16    18 1   
    37    16    44 1   
    38    17    19 1   
    39    17    45 1   
    40    17    46 1   
    41    18    47 1   
    42    18    48 1   
    43    18    49 1   
    44    19    50 1   
    45    19    51 1   
    46    19    63 1   
    47    21    22 1   
    48    21    24 2   
    49    22    23 2   
    50    23    63 1   
    51    25    26 1   
    52    25    53 1   
    53    25    54 1   
    54    26    27 1   
    55    27    55 1   
    56    27    56 1   
    57    28    57 1   
    58    28    58 1   
    59    28    59 1   
    60    29    30 1   
    61    30    31 1   
    62    31    60 1   
    63    31    61 1   
    64    31    62 1   
    65    52    63 1   
@<TRIPOS>SUBSTRUCTURE
     1 0H3         1 TEMP              0 ****  ****    0 ROOT
