@<TRIPOS>MOLECULE
0H4
   50    52     1     0     0
SMALL
bcc


@<TRIPOS>ATOM
      1 N3          -0.0700    -0.3700     0.0350 nb         1 0H4      -0.667000
      2 C4          -5.3220    -0.0130    -1.3010 cc         1 0H4       0.033600
      3 N2          -2.1360     0.1910     1.1460 ns         1 0H4      -0.557400
      4 C7          -5.5360     2.6480    -0.5200 cc         1 0H4      -0.200200
      5 C6          -5.9340     2.2730    -1.7630 cd         1 0H4      -0.057200
      6 C9          -4.9780     1.6660     0.4120 c          1 0H4       0.685700
      7 C13         -8.1440    -2.4140     2.9500 c3         1 0H4      -0.078900
      8 C20          3.4570     0.8510     0.5610 c3         1 0H4      -0.044800
      9 C8          -6.5000     3.2870    -2.7580 c3         1 0H4       0.681100
     10 C18          2.0010     0.6990     0.7510 ca         1 0H4      -0.218600
     11 C16         -0.0700     1.2540     1.8610 ca         1 0H4      -0.278300
     12 C19          1.2530    -0.1820    -0.0590 ca         1 0H4       0.423200
     13 N1          -4.9300     0.3160    -0.0200 n          1 0H4      -0.327000
     14 C1          -4.4380    -0.6970     0.9050 c3         1 0H4       0.010700
     15 C2          -2.8990    -0.8920     0.7420 c          1 0H4       0.654100
     16 O1          -2.4490    -1.9640     0.3160 o          1 0H4      -0.542100
     17 C3          -0.7410     0.3360     0.9990 ca         1 0H4       0.526200
     18 C5          -5.8210     0.9140    -2.1820 cd         1 0H4      -0.231000
     19 O2          -4.5430     1.9620     1.5450 o          1 0H4      -0.653500
     20 C10         -5.1050    -2.0730     0.8080 c3         1 0H4      -0.078400
     21 C11         -6.5910    -2.0380     1.0910 c3         1 0H4      -0.072700
     22 C12         -6.9220    -1.6120     2.5210 c3         1 0H4      -0.078400
     23 C14         -8.3200    -3.5510     1.9520 c3         1 0H4      -0.078900
     24 C15         -7.2200    -3.4220     0.9080 c3         1 0H4      -0.078400
     25 C17          1.3040     1.4240     1.7220 ca         1 0H4      -0.072000
     26 F1          -5.6160     3.6470    -3.7460 f          1 0H4      -0.229633
     27 F2          -7.6090     2.8460    -3.4370 f          1 0H4      -0.229633
     28 F3          -6.8920     4.4790    -2.2010 f          1 0H4      -0.229633
     29 H3          -5.2120    -1.0760    -1.5930 h4         1 0H4       0.177000
     30 H2          -2.6010     0.9590     1.5890 hn         1 0H4       0.349500
     31 H5          -5.6010     3.6820    -0.1460 ha         1 0H4       0.184000
     32 H12         -9.0530    -1.7620     2.9600 hc         1 0H4       0.043700
     33 H11         -8.0090    -2.8110     3.9860 hc         1 0H4       0.043700
     34 H22          3.6640     1.6400    -0.2060 hc         1 0H4       0.046033
     35 H21          3.9550     1.1530     1.5160 hc         1 0H4       0.046033
     36 H20          3.9160    -0.1060     0.2100 hc         1 0H4       0.046033
     37 H17         -0.6230     1.8200     2.6230 ha         1 0H4       0.146000
     38 H19          1.7510    -0.7800    -0.8460 h4         1 0H4       0.026100
     39 H1          -4.6370    -0.3040     1.9540 h1         1 0H4       0.108700
     40 H4          -6.1300     0.6230    -3.1940 ha         1 0H4       0.172000
     41 H6          -4.9130    -2.5360    -0.1950 hc         1 0H4       0.072200
     42 H7          -4.5890    -2.7290     1.5630 hc         1 0H4       0.072200
     43 H8          -7.0880    -1.3250     0.3760 hc         1 0H4       0.049700
     44 H9          -7.1220    -0.5140     2.5740 hc         1 0H4       0.044950
     45 H10         -6.0600    -1.8310     3.2020 hc         1 0H4       0.044950
     46 H14         -8.2580    -4.5430     2.4650 hc         1 0H4       0.043700
     47 H13         -9.3270    -3.4910     1.4670 hc         1 0H4       0.043700
     48 H16         -6.4500    -4.2220     1.0550 hc         1 0H4       0.044950
     49 H15         -7.6280    -3.5360    -0.1260 hc         1 0H4       0.044950
     50 H18          1.8390     2.1260     2.3800 ha         1 0H4       0.140000
@<TRIPOS>BOND
     1     1    12 ar  
     2     1    17 ar  
     3     2    13 1   
     4     2    18 2   
     5     2    29 1   
     6     3    15 1   
     7     3    17 1   
     8     3    30 1   
     9     4     5 2   
    10     4     6 1   
    11     4    31 1   
    12     5     9 1   
    13     5    18 1   
    14     6    13 1   
    15     6    19 2   
    16     7    22 1   
    17     7    23 1   
    18     7    32 1   
    19     7    33 1   
    20     8    10 1   
    21     8    34 1   
    22     8    35 1   
    23     8    36 1   
    24     9    26 1   
    25     9    27 1   
    26     9    28 1   
    27    10    12 ar  
    28    10    25 ar  
    29    11    17 ar  
    30    11    25 ar  
    31    11    37 1   
    32    12    38 1   
    33    13    14 1   
    34    14    15 1   
    35    14    20 1   
    36    14    39 1   
    37    15    16 2   
    38    18    40 1   
    39    20    21 1   
    40    20    41 1   
    41    20    42 1   
    42    21    22 1   
    43    21    24 1   
    44    21    43 1   
    45    22    44 1   
    46    22    45 1   
    47    23    24 1   
    48    23    46 1   
    49    23    47 1   
    50    24    48 1   
    51    24    49 1   
    52    25    50 1   
@<TRIPOS>SUBSTRUCTURE
     1 0H4         1 TEMP              0 ****  ****    0 ROOT
