@<TRIPOS>MOLECULE
0H4
   50    52     1     0     0
SMALL
bcc


@<TRIPOS>ATOM
      1 N3           0.0000     0.0000     0.0000 nb         1 0H4      -0.546000
      2 C4          -5.3520     1.4190    -1.9510 cc         1 0H4      -0.122400
      3 N2          -2.0880     0.0030     1.0790 ns         1 0H4      -0.109400
      4 C7          -4.8160    -0.5960    -3.7370 cc         1 0H4      -0.152200
      5 C6          -5.5060     0.5060    -4.1500 cd         1 0H4      -0.125200
      6 C9          -4.3870    -0.6780    -2.4010 c          1 0H4       0.595700
      7 C13         -7.9610    -2.7160     0.3430 c3         1 0H4      -0.020400
      8 C20          3.5350    -0.0020     1.1710 c3         1 0H4       0.076200
      9 C8          -5.9770     0.6180    -5.5770 c3         1 0H4       0.634100
     10 C18          2.0280     0.0000     1.1850 ca         1 0H4      -0.238600
     11 C16         -0.0470     0.0020     2.3570 ca         1 0H4      -0.264300
     12 C19          1.3190     0.0000     0.0000 ca         1 0H4       0.431200
     13 N1          -4.6660     0.3210    -1.5410 n          1 0H4       0.153000
     14 C1          -4.2240     0.2230    -0.1480 c3         1 0H4      -0.079300
     15 C2          -2.7210     0.1060    -0.1050 c          1 0H4       0.537100
     16 O1          -2.0830     0.1060    -1.1370 o          1 0H4      -0.542100
     17 C3          -0.6940     0.0020     1.1260 ca         1 0H4       0.352200
     18 C5          -5.7750     1.5300    -3.2320 cd         1 0H4      -0.183000
     19 O2          -3.7690    -1.6570    -2.0170 o          1 0H4      -0.671500
     20 C10         -4.8490    -1.0150     0.4990 c3         1 0H4      -0.060400
     21 C11         -6.3680    -0.8400     0.5680 c3         1 0H4      -0.049700
     22 C12         -7.0000    -2.0200     1.3290 c3         1 0H4      -0.046400
     23 C14         -8.3140    -1.6160    -0.6880 c3         1 0H4      -0.020400
     24 C15         -6.9710    -0.8620    -0.8570 c3         1 0H4      -0.046400
     25 C17          1.3370     0.0010     2.3890 ca         1 0H4      -0.043000
     26 F1          -5.9070     1.9530    -5.9880 f          1 0H4      -0.204633
     27 F2          -5.1630    -0.1670    -6.4000 f          1 0H4      -0.204633
     28 F3          -7.2990     0.1710    -5.6680 f          1 0H4      -0.204633
     29 H3          -5.5650     2.2130    -1.2460 h4         1 0H4       0.130000
     30 H2          -2.6170    -0.0300     1.9280 hn         1 0H4       0.168500
     31 H5          -4.5950    -1.3970    -4.4330 ha         1 0H4       0.149000
     32 H12         -7.4640    -3.5460    -0.1450 hc         1 0H4       0.017950
     33 H11         -8.8530    -3.0510     0.8590 hc         1 0H4       0.017950
     34 H22          3.9050     0.2810     2.1490 hc         1 0H4       0.008033
     35 H21          3.8920    -0.9940     0.9230 hc         1 0H4       0.008033
     36 H20          3.8900     0.7060     0.4320 hc         1 0H4       0.008033
     37 H17         -0.6180     0.0030     3.2770 ha         1 0H4       0.112000
     38 H19          1.8530    -0.0010    -0.9420 h4         1 0H4      -0.013900
     39 H1          -4.5330     1.1090     0.3930 h1         1 0H4       0.048700
     40 H4          -6.3210     2.4110    -3.5480 ha         1 0H4       0.135000
     41 H6          -4.6130    -1.8900    -0.0930 hc         1 0H4       0.053200
     42 H7          -4.4540    -1.1380     1.5000 hc         1 0H4       0.053200
     43 H8          -6.6180     0.0920     1.0600 hc         1 0H4       0.021700
     44 H9          -7.5510    -1.6530     2.1860 hc         1 0H4       0.023450
     45 H10         -6.2280    -2.7120     1.6450 hc         1 0H4       0.023450
     46 H14         -9.0770    -0.9550    -0.2960 hc         1 0H4       0.017950
     47 H13         -8.6250    -2.0590    -1.6270 hc         1 0H4       0.017950
     48 H16         -6.3190    -1.3990    -1.5350 hc         1 0H4       0.023450
     49 H15         -7.1470     0.1480    -1.2090 hc         1 0H4       0.023450
     50 H18          1.8690     0.0020     3.3330 ha         1 0H4       0.110000
@<TRIPOS>BOND
     1     1    12 ar  
     2     1    17 ar  
     3     2    13 1   
     4     2    18 2   
     5     2    29 1   
     6     3    15 1   
     7     3    17 1   
     8     3    30 1   
     9     4     5 2   
    10     4     6 1   
    11     4    31 1   
    12     5     9 1   
    13     5    18 1   
    14     6    13 1   
    15     6    19 2   
    16     7    22 1   
    17     7    23 1   
    18     7    32 1   
    19     7    33 1   
    20     8    10 1   
    21     8    34 1   
    22     8    35 1   
    23     8    36 1   
    24     9    26 1   
    25     9    27 1   
    26     9    28 1   
    27    10    12 ar  
    28    10    25 ar  
    29    11    17 ar  
    30    11    25 ar  
    31    11    37 1   
    32    12    38 1   
    33    13    14 1   
    34    14    15 1   
    35    14    20 1   
    36    14    39 1   
    37    15    16 2   
    38    18    40 1   
    39    20    21 1   
    40    20    41 1   
    41    20    42 1   
    42    21    22 1   
    43    21    24 1   
    44    21    43 1   
    45    22    44 1   
    46    22    45 1   
    47    23    24 1   
    48    23    46 1   
    49    23    47 1   
    50    24    48 1   
    51    24    49 1   
    52    25    50 1   
@<TRIPOS>SUBSTRUCTURE
     1 0H4         1 TEMP              0 ****  ****    0 ROOT
