@<TRIPOS>MOLECULE
0H5
   32    34     1     0     0
SMALL
bcc


@<TRIPOS>ATOM
      1 C4          -0.0730    -0.1170     0.1010 ca         1 0H5       0.401600
      2 C6           0.1000     0.2380     2.5240 ca         1 0H5      -0.134000
      3 C13          3.5880     0.4380     3.5170 c3         1 0H5       0.113700
      4 C8          -2.1360    -0.2660    -0.9100 ca         1 0H5       0.658900
      5 C18         -5.2210     0.7800     1.9110 cc         1 0H5      -0.252300
      6 C19         -7.1300    -1.0400     4.4270 c3         1 0H5       0.042600
      7 C1           1.4850     0.2270     2.4140 ca         1 0H5       0.111100
      8 C2           2.1160     0.0450     1.1600 ca         1 0H5      -0.163000
      9 C3           1.3540    -0.1210     0.0300 ca         1 0H5      -0.145300
     10 C5          -0.6960     0.0580     1.3760 ca         1 0H5      -0.250600
     11 N7          -0.8150    -0.2800    -1.0580 nb         1 0H5      -0.707000
     12 N9          -2.8660    -0.1210     0.2490 nb         1 0H5      -0.755000
     13 C10         -2.1660     0.0440     1.3900 ca         1 0H5       0.687200
     14 O11          2.1680     0.4040     3.6030 os         1 0H5      -0.326900
     15 N12         -2.8190     0.2820     2.6100 nu         1 0H5      -0.788600
     16 C14         -4.2120     0.1250     2.7300 cc         1 0H5       0.504200
     17 N15         -4.8240    -0.6270     3.7180 nd         1 0H5      -0.545800
     18 N16         -6.1420    -0.4610     3.5500 na         1 0H5       0.093400
     19 C17         -6.4380     0.3800     2.4690 cd         1 0H5      -0.149300
     20 H1          -0.3350     0.4010     3.5210 ha         1 0H5       0.151000
     21 H2           3.9830    -0.5360     3.1380 h1         1 0H5       0.046033
     22 H3           3.9070     0.6070     4.5770 h1         1 0H5       0.046033
     23 H4           3.9260     1.2800     2.8650 h1         1 0H5       0.046033
     24 H5          -2.7520    -0.3940    -1.8260 h5         1 0H5       0.052100
     25 H6          -5.0470     1.4150     1.0500 ha         1 0H5       0.181000
     26 H7          -6.9440    -2.1400     4.5500 h1         1 0H5       0.057700
     27 H8          -8.1430    -0.8800     3.9740 h1         1 0H5       0.057700
     28 H9          -7.0880    -0.5480     5.4360 h1         1 0H5       0.057700
     29 H10          3.2140     0.0380     1.0870 ha         1 0H5       0.143000
     30 H11          1.8370    -0.2590    -0.9520 ha         1 0H5       0.156000
     31 H12         -2.3000    -0.0160     3.4130 hn         1 0H5       0.436800
     32 H13         -7.4630     0.6190     2.1860 h4         1 0H5       0.175000
@<TRIPOS>BOND
     1     1     9 ar  
     2     1    10 ar  
     3     1    11 ar  
     4     2     7 ar  
     5     2    10 ar  
     6     2    20 1   
     7     3    14 1   
     8     3    21 1   
     9     3    22 1   
    10     3    23 1   
    11     4    11 ar  
    12     4    12 ar  
    13     4    24 1   
    14     5    16 1   
    15     5    19 2   
    16     5    25 1   
    17     6    18 1   
    18     6    26 1   
    19     6    27 1   
    20     6    28 1   
    21     7     8 ar  
    22     7    14 1   
    23     8     9 ar  
    24     8    29 1   
    25     9    30 1   
    26    10    13 ar  
    27    12    13 ar  
    28    13    15 1   
    29    15    16 1   
    30    15    31 1   
    31    16    17 2   
    32    17    18 1   
    33    18    19 1   
    34    19    32 1   
@<TRIPOS>SUBSTRUCTURE
     1 0H5         1 TEMP              0 ****  ****    0 ROOT
