@<TRIPOS>MOLECULE
0H5
   32    34     1     0     0
SMALL
bcc


@<TRIPOS>ATOM
      1 C4           0.0000     0.0000     0.0000 ca         1 0H5       0.402600
      2 C6           0.0190    -0.0130     2.4340 ca         1 0H5      -0.127000
      3 C13          3.5250    -0.0210     3.4620 c3         1 0H5       0.244700
      4 C8          -2.0190     0.0010    -1.1090 ca         1 0H5       0.664900
      5 C18         -5.0280    -0.0060     1.1480 cc         1 0H5      -0.335300
      6 C19         -7.5880    -0.0210     3.6890 c3         1 0H5       0.025600
      7 C1           1.3970    -0.0140     2.4010 ca         1 0H5       0.139100
      8 C2           2.0790     0.0000     1.1810 ca         1 0H5      -0.166000
      9 C3           1.4010     0.0000     0.0000 ca         1 0H5      -0.111300
     10 C5          -0.6960    -0.0060     1.2320 ca         1 0H5      -0.272600
     11 N7          -0.7090     0.0010    -1.1400 nb         1 0H5      -0.666000
     12 N9          -2.7130    -0.0000     0.0180 nb         1 0H5      -0.710000
     13 C10         -2.1130    -0.0060     1.2010 ca         1 0H5       0.531200
     14 O11          2.0990    -0.0200     3.5640 os         1 0H5      -0.307900
     15 N12         -2.8480    -0.0130     2.3690 nu         1 0H5      -0.334600
     16 C14         -4.2470    -0.0130     2.3160 cc         1 0H5       0.437200
     17 N15         -5.0580    -0.0190     3.3470 nd         1 0H5      -0.693800
     18 N16         -6.3740    -0.0170     2.8690 na         1 0H5       0.491400
     19 C17         -6.3280    -0.0040     1.5190 cd         1 0H5      -0.243300
     20 H1          -0.5050    -0.0240     3.3820 ha         1 0H5       0.119000
     21 H2           3.8480    -0.9010     2.9200 h1         1 0H5      -0.001300
     22 H3           3.9580    -0.0290     4.4550 h1         1 0H5      -0.001300
     23 H4           3.8490     0.8680     2.9340 h1         1 0H5      -0.001300
     24 H5          -2.5590     0.0060    -2.0480 h5         1 0H5      -0.006900
     25 H6          -4.6550     0.0020     0.1310 ha         1 0H5       0.189000
     26 H7          -8.1700     0.8680     3.4770 h1         1 0H5       0.019367
     27 H8          -8.1760    -0.9010     3.4590 h1         1 0H5       0.019367
     28 H9          -7.3150    -0.0320     4.7370 h1         1 0H5       0.019367
     29 H10          3.1620    -0.0010     1.1760 ha         1 0H5       0.121000
     30 H11          1.9440     0.0110    -0.9370 ha         1 0H5       0.120000
     31 H12         -2.3810     0.0060     3.2540 hn         1 0H5       0.292800
     32 H13         -7.1820     0.0010     0.8520 h4         1 0H5       0.143000
@<TRIPOS>BOND
     1     1     9 ar  
     2     1    10 ar  
     3     1    11 ar  
     4     2     7 ar  
     5     2    10 ar  
     6     2    20 1   
     7     3    14 1   
     8     3    21 1   
     9     3    22 1   
    10     3    23 1   
    11     4    11 ar  
    12     4    12 ar  
    13     4    24 1   
    14     5    16 1   
    15     5    19 2   
    16     5    25 1   
    17     6    18 1   
    18     6    26 1   
    19     6    27 1   
    20     6    28 1   
    21     7     8 ar  
    22     7    14 1   
    23     8     9 ar  
    24     8    29 1   
    25     9    30 1   
    26    10    13 ar  
    27    12    13 ar  
    28    13    15 1   
    29    15    16 1   
    30    15    31 1   
    31    16    17 2   
    32    17    18 1   
    33    18    19 1   
    34    19    32 1   
@<TRIPOS>SUBSTRUCTURE
     1 0H5         1 TEMP              0 ****  ****    0 ROOT
