@<TRIPOS>MOLECULE
molecule
   32    34     1     0     0
SMALL
bcc


@<TRIPOS>ATOM
      1 C4           0.0000     0.0000     0.0000 ca         1 0H5       0.442600
      2 C6           0.0190    -0.0130     2.4340 ca         1 0H5      -0.139000
      3 C13          3.5250    -0.0210     3.4620 c3         1 0H5       0.128700
      4 C8          -2.0190     0.0010    -1.1090 ca         1 0H5       0.711900
      5 C18         -5.0280    -0.0060     1.1480 cc         1 0H5      -0.339300
      6 C19         -7.5880    -0.0210     3.6890 c3         1 0H5       0.068600
      7 C1           1.3970    -0.0140     2.4010 ca         1 0H5       0.127100
      8 C2           2.0790     0.0000     1.1810 ca         1 0H5      -0.176000
      9 C3           1.4010     0.0000     0.0000 ca         1 0H5      -0.141300
     10 C5          -0.6960    -0.0060     1.2320 ca         1 0H5      -0.280600
     11 N7          -0.7090     0.0010    -1.1400 nb         1 0H5      -0.762000
     12 N9          -2.7130    -0.0000     0.0180 nb         1 0H5      -0.813000
     13 C10         -2.1130    -0.0060     1.2010 ca         1 0H5       0.745200
     14 O11          2.0990    -0.0200     3.5640 os         1 0H5      -0.327900
     15 N12         -2.8480    -0.0130     2.3690 nu         1 0H5      -0.829600
     16 C14         -4.2470    -0.0130     2.3160 cd         1 0H5       0.576200
     17 N15         -5.0580    -0.0190     3.3470 nc         1 0H5      -0.561800
     18 N16         -6.3740    -0.0170     2.8690 na         1 0H5       0.064400
     19 C17         -6.3280    -0.0040     1.5190 cd         1 0H5      -0.114300
     20 H1          -0.5050    -0.0240     3.3820 ha         1 0H5       0.141000
     21 H2           3.8480    -0.9010     2.9200 h1         1 0H5       0.042700
     22 H3           3.9580    -0.0290     4.4550 h1         1 0H5       0.042700
     23 H4           3.8490     0.8680     2.9340 h1         1 0H5       0.042700
     24 H5          -2.5590     0.0060    -2.0480 h5         1 0H5       0.056100
     25 H6          -4.6550     0.0020     0.1310 ha         1 0H5       0.202000
     26 H7          -8.1700     0.8680     3.4770 h1         1 0H5       0.052700
     27 H8          -8.1760    -0.9010     3.4590 h1         1 0H5       0.052700
     28 H9          -7.3150    -0.0320     4.7370 h1         1 0H5       0.052700
     29 H10          3.1620    -0.0010     1.1760 ha         1 0H5       0.141000
     30 H11          1.9440     0.0110    -0.9370 ha         1 0H5       0.155000
     31 H12         -2.3810     0.0060     3.2540 hn         1 0H5       0.469800
     32 H13         -7.1820     0.0010     0.8520 h4         1 0H5       0.169000
@<TRIPOS>BOND
     1     6    18 1   
     2    18    17 1   
     3    18    19 1   
     4    17    16 2   
     5    19     5 2   
     6    16     5 1   
     7    16    15 1   
     8    15    13 1   
     9    14     3 1   
    10    14     7 1   
    11     2     7 ar  
    12     2    10 ar  
    13     7     8 ar  
    14    13    10 ar  
    15    13    12 ar  
    16    10     1 ar  
    17    12     4 ar  
    18     8     9 ar  
    19     1     9 ar  
    20     1    11 ar  
    21     4    11 ar  
    22     2    20 1   
    23     3    21 1   
    24     3    22 1   
    25     3    23 1   
    26     4    24 1   
    27     5    25 1   
    28     6    26 1   
    29     6    27 1   
    30     6    28 1   
    31     8    29 1   
    32     9    30 1   
    33    15    31 1   
    34    19    32 1   
@<TRIPOS>SUBSTRUCTURE
     1 0H5         1 TEMP              0 ****  ****    0 ROOT
