@<TRIPOS>MOLECULE
0H6
   46    48     1     0     0
SMALL
bcc


@<TRIPOS>ATOM
      1 C4           0.0000     0.0000     0.0000 c3         1 0H6      -0.034400
      2 C7          -2.4640    -2.6950     0.9800 c3         1 0H6      -0.023400
      3 C6          -2.0500    -1.2140     0.8630 c3         1 0H6      -0.023400
      4 C9          -0.3010    -2.5070    -0.2000 c3         1 0H6      -0.023400
      5 C13          3.2470     3.2760    -2.1520 ca         1 0H6      -0.269300
      6 C21          2.8080    -0.9540     1.9640 cc         1 0H6      -0.370600
      7 C8          -1.3520    -3.5180     0.3040 c3         1 0H6      -0.023400
      8 C16          1.8810     4.1140    -4.3650 ca         1 0H6       0.432200
      9 N1           2.0180     0.0000     1.3820 na         1 0H6       0.340100
     10 C2           1.5300     0.0000     0.0000 c3         1 0H6      -0.157000
     11 C3           2.0330     1.2300    -0.7110 c          1 0H6       0.525100
     12 C5          -0.5100    -1.2630     0.6970 c3         1 0H6      -0.066700
     13 N10          1.6790     1.4610    -1.9900 ns         1 0H6      -0.052400
     14 O11          2.7550     2.0120    -0.1310 o          1 0H6      -0.623100
     15 C12          2.1300     2.6030    -2.6400 ca         1 0H6       0.274200
     16 C14          3.6890     4.4010    -2.7940 ca         1 0H6      -0.036000
     17 C15          2.9920     4.8380    -3.9310 ca         1 0H6      -0.212900
     18 N17          1.4890     3.0380    -3.7170 nb         1 0H6      -0.642000
     19 O19          4.3990     6.6680    -4.2730 o          1 0H6      -0.876800
     20 O20          2.7540     6.4560    -5.7490 o          1 0H6      -0.876800
     21 C22          3.0140    -0.5660     3.2370 cd         1 0H6       0.173600
     22 N23          2.3670     0.5940     3.4270 nd         1 0H6      -0.574000
     23 C24          1.7730     0.9420     2.3180 cc         1 0H6       0.260400
     24 F26          5.1560    -0.8720     4.2110 f          1 0H6      -0.211967
     25 F27          3.3090    -1.0500     5.5420 f          1 0H6      -0.211967
     26 F28          3.7730    -2.6780     4.0090 f          1 0H6      -0.211967
     27 H1          -0.3610     0.8750     0.5270 hc         1 0H6       0.038700
     28 H2          -0.3610     0.0190    -1.0210 hc         1 0H6       0.038700
     29 H3          -2.5480    -2.9740     2.0230 hc         1 0H6       0.012700
     30 H4          -3.4060    -2.8570     0.4690 hc         1 0H6       0.012700
     31 H5          -2.3160    -0.6750     1.7640 hc         1 0H6       0.018200
     32 H6          -2.5090    -0.7620    -0.0080 hc         1 0H6       0.018200
     33 H7           0.6980    -2.9040    -0.0680 hc         1 0H6       0.018200
     34 H8          -0.4840    -2.2590    -1.2380 hc         1 0H6       0.018200
     35 H9           3.7620     2.9120    -1.2710 ha         1 0H6       0.163000
     36 H10          3.1930    -1.8490     1.4910 h4         1 0H6       0.158000
     37 H11         -1.7600    -4.0750    -0.5300 hc         1 0H6       0.012700
     38 H12         -0.9020    -4.1920     1.0230 hc         1 0H6       0.012700
     39 H13          1.3350     4.4420    -5.2410 h4         1 0H6       0.011100
     40 H14          1.8910    -0.8850    -0.5110 h1         1 0H6       0.061700
     41 H15         -0.0280    -1.4000     1.6580 hc         1 0H6       0.044700
     42 H16          1.1170     0.7950    -2.4810 hn         1 0H6       0.158500
     43 H17          4.5550     4.9410    -2.4330 ha         1 0H6       0.129000
     44 H19          1.1760     1.8340     2.1750 h5         1 0H6       0.037100
     45 C18          3.4300     6.0450    -4.6580 c          1 0H6       0.974200
     46 C25          3.8270    -1.3040     4.2680 c3         1 0H6       0.577600
@<TRIPOS>BOND
     1     1    10 1   
     2     1    12 1   
     3     1    27 1   
     4     1    28 1   
     5     2     3 1   
     6     2     7 1   
     7     2    29 1   
     8     2    30 1   
     9     3    12 1   
    10     3    31 1   
    11     3    32 1   
    12     4     7 1   
    13     4    12 1   
    14     4    33 1   
    15     4    34 1   
    16     5    15 ar  
    17     5    16 ar  
    18     5    35 1   
    19     6     9 1   
    20     6    21 2   
    21     6    36 1   
    22     7    37 1   
    23     7    38 1   
    24     8    17 ar  
    25     8    18 ar  
    26     8    39 1   
    27     9    10 1   
    28     9    23 1   
    29    10    11 1   
    30    10    40 1   
    31    11    13 1   
    32    11    14 2   
    33    12    41 1   
    34    13    15 1   
    35    13    42 1   
    36    15    18 ar  
    37    16    17 ar  
    38    16    43 1   
    39    17    45 1   
    40    19    45 1   
    41    20    45 1   
    42    21    22 1   
    43    21    46 1   
    44    22    23 2   
    45    23    44 1   
    46    24    46 1   
    47    25    46 1   
    48    26    46 1   
@<TRIPOS>SUBSTRUCTURE
     1 0H6         1 TEMP              0 ****  ****    0 ROOT
