@<TRIPOS>MOLECULE
0H6
   46    48     1     0     0
SMALL
bcc


@<TRIPOS>ATOM
      1 C4           0.1390     0.0270     0.2100 c3         1 0H6      -0.089400
      2 C7          -2.8340    -2.1890     0.5070 c3         1 0H6      -0.077900
      3 C6          -2.1520    -0.8500     0.7480 c3         1 0H6      -0.078400
      4 C9          -0.4290    -2.4440     0.0700 c3         1 0H6      -0.078400
      5 C13          3.8160     2.5380    -2.6230 ca         1 0H6      -0.248300
      6 C21          2.2590     1.1440     2.4990 cc         1 0H6      -0.135600
      7 C8          -1.7620    -3.1800     0.0730 c3         1 0H6      -0.077900
      8 C16          3.6940     1.2880    -5.0650 ca         1 0H6       0.426200
      9 N1           2.1150    -0.0190     1.7510 na         1 0H6      -0.191900
     10 C2           1.6590    -0.1410     0.3890 c3         1 0H6      -0.027000
     11 C3           2.3190     0.9240    -0.5410 c          1 0H6       0.649100
     12 C5          -0.6470    -1.1210     0.8060 c3         1 0H6      -0.073700
     13 N10          2.9500     0.4260    -1.6540 ns         1 0H6      -0.515400
     14 O11          2.2550     2.1280    -0.2280 o          1 0H6      -0.595100
     15 C12          3.3490     1.2120    -2.7780 ca         1 0H6       0.446200
     16 C14          4.2290     3.2330    -3.7640 ca         1 0H6      -0.073000
     17 C15          4.1770     2.6150    -5.0110 ca         1 0H6      -0.232900
     18 N17          3.2840     0.5870    -4.0010 nb         1 0H6      -0.738000
     19 O19          5.0410     4.5070    -6.1750 o          1 0H6      -0.821300
     20 O20          4.5260     2.6830    -7.3660 o          1 0H6      -0.821300
     21 C22          2.6200     0.7230     3.7960 cd         1 0H6       0.168600
     22 N23          2.6910    -0.6750     3.8570 nd         1 0H6      -0.621000
     23 C24          2.3760    -1.1010     2.6210 cc         1 0H6       0.384400
     24 F26          2.0770     1.3760     6.0640 f          1 0H6      -0.238967
     25 F27          4.1680     1.4640     5.5090 f          1 0H6      -0.238967
     26 F28          2.7790     2.9410     4.7420 f          1 0H6      -0.238967
     27 H1          -0.0650     0.0970    -0.8920 hc         1 0H6       0.073200
     28 H2          -0.1880     0.9950     0.6740 hc         1 0H6       0.073200
     29 H3          -3.3360    -2.5450     1.4420 hc         1 0H6       0.040700
     30 H4          -3.6260    -2.0910    -0.2770 hc         1 0H6       0.040700
     31 H5          -2.3870    -0.1400    -0.0850 hc         1 0H6       0.043200
     32 H6          -2.5030    -0.3810     1.7000 hc         1 0H6       0.043200
     33 H7          -0.0950    -2.2570    -0.9820 hc         1 0H6       0.043200
     34 H8           0.3650    -3.0500     0.5720 hc         1 0H6       0.043200
     35 H9           3.8420     3.0160    -1.6340 ha         1 0H6       0.151000
     36 H10          2.1300     2.1440     2.0710 h4         1 0H6       0.225000
     37 H11         -1.9860    -3.5880    -0.9440 hc         1 0H6       0.040700
     38 H12         -1.7270    -4.0480     0.7790 hc         1 0H6       0.040700
     39 H13          3.6420     0.7780    -6.0470 h4         1 0H6       0.046100
     40 H14          1.9340    -1.1900     0.0610 h1         1 0H6       0.076700
     41 H15         -0.3470    -1.2540     1.8820 hc         1 0H6       0.057700
     42 H16          2.8580    -0.5520    -1.8320 hn         1 0H6       0.316500
     43 H17          4.6000     4.2680    -3.6960 ha         1 0H6       0.163000
     44 H19          2.3300    -2.1440     2.2920 h5         1 0H6       0.065100
     45 C18          4.6160     3.3240    -6.2820 c          1 0H6       0.914200
     46 C25          2.9040     1.5940     4.9890 c3         1 0H6       0.640600
@<TRIPOS>BOND
     1     1    10 1   
     2     1    12 1   
     3     1    27 1   
     4     1    28 1   
     5     2     3 1   
     6     2     7 1   
     7     2    29 1   
     8     2    30 1   
     9     3    12 1   
    10     3    31 1   
    11     3    32 1   
    12     4     7 1   
    13     4    12 1   
    14     4    33 1   
    15     4    34 1   
    16     5    15 ar  
    17     5    16 ar  
    18     5    35 1   
    19     6     9 1   
    20     6    21 2   
    21     6    36 1   
    22     7    37 1   
    23     7    38 1   
    24     8    17 ar  
    25     8    18 ar  
    26     8    39 1   
    27     9    10 1   
    28     9    23 1   
    29    10    11 1   
    30    10    40 1   
    31    11    13 1   
    32    11    14 2   
    33    12    41 1   
    34    13    15 1   
    35    13    42 1   
    36    15    18 ar  
    37    16    17 ar  
    38    16    43 1   
    39    17    45 1   
    40    19    45 1   
    41    20    45 1   
    42    21    22 1   
    43    21    46 1   
    44    22    23 2   
    45    23    44 1   
    46    24    46 1   
    47    25    46 1   
    48    26    46 1   
@<TRIPOS>SUBSTRUCTURE
     1 0H6         1 TEMP              0 ****  ****    0 ROOT
