@<TRIPOS>MOLECULE
molecule
   46    48     1     0     0
SMALL
bcc


@<TRIPOS>ATOM
      1 C4           0.0000     0.0000     0.0000 c3         1 0H6      -0.085400
      2 C7          -2.4640    -2.6950     0.9800 c3         1 0H6      -0.082400
      3 C6          -2.0500    -1.2140     0.8630 c3         1 0H6      -0.080400
      4 C9          -0.3010    -2.5070    -0.2000 c3         1 0H6      -0.080400
      5 C13          3.2470     3.2760    -2.1520 ca         1 0H6      -0.279300
      6 C21          2.8080    -0.9540     1.9640 cc         1 0H6      -0.214600
      7 C8          -1.3520    -3.5180     0.3040 c3         1 0H6      -0.082400
      8 C16          1.8810     4.1140    -4.3650 ca         1 0H6       0.453200
      9 N1           2.0180     0.0000     1.3820 na         1 0H6      -0.160900
     10 C2           1.5300     0.0000     0.0000 c3         1 0H6      -0.029000
     11 C3           2.0330     1.2300    -0.7110 c          1 0H6       0.636100
     12 C5          -0.5100    -1.2630     0.6970 c3         1 0H6      -0.082700
     13 N10          1.6790     1.4610    -1.9900 ns         1 0H6      -0.525400
     14 O11          2.7550     2.0120    -0.1310 o          1 0H6      -0.572100
     15 C12          2.1300     2.6030    -2.6400 ca         1 0H6       0.479200
     16 C14          3.6890     4.4010    -2.7940 ca         1 0H6      -0.067000
     17 C15          2.9920     4.8380    -3.9310 ca         1 0H6      -0.226900
     18 N17          1.4890     3.0380    -3.7170 nb         1 0H6      -0.762000
     19 O19          4.3990     6.6680    -4.2730 o          1 0H6      -0.831800
     20 O20          2.7540     6.4560    -5.7490 o          1 0H6      -0.831800
     21 C22          3.0140    -0.5660     3.2370 cd         1 0H6       0.219600
     22 N23          2.3670     0.5940     3.4270 nd         1 0H6      -0.671000
     23 C24          1.7730     0.9420     2.3180 cc         1 0H6       0.444400
     24 F26          5.1560    -0.8720     4.2110 f          1 0H6      -0.223967
     25 F27          3.3090    -1.0500     5.5420 f          1 0H6      -0.223967
     26 F28          3.7730    -2.6780     4.0090 f          1 0H6      -0.223967
     27 H1          -0.3610     0.8750     0.5270 hc         1 0H6       0.065200
     28 H2          -0.3610     0.0190    -1.0210 hc         1 0H6       0.065200
     29 H3          -2.5480    -2.9740     2.0230 hc         1 0H6       0.041950
     30 H4          -3.4060    -2.8570     0.4690 hc         1 0H6       0.041950
     31 H5          -2.3160    -0.6750     1.7640 hc         1 0H6       0.045450
     32 H6          -2.5090    -0.7620    -0.0080 hc         1 0H6       0.045450
     33 H7           0.6980    -2.9040    -0.0680 hc         1 0H6       0.045450
     34 H8          -0.4840    -2.2590    -1.2380 hc         1 0H6       0.045450
     35 H9           3.7620     2.9120    -1.2710 ha         1 0H6       0.168000
     36 H10          3.1930    -1.8490     1.4910 h4         1 0H6       0.181000
     37 H11         -1.7600    -4.0750    -0.5300 hc         1 0H6       0.041950
     38 H12         -0.9020    -4.1920     1.0230 hc         1 0H6       0.041950
     39 H13          1.3350     4.4420    -5.2410 h4         1 0H6       0.053100
     40 H14          1.8910    -0.8850    -0.5110 h1         1 0H6       0.088700
     41 H15         -0.0280    -1.4000     1.6580 hc         1 0H6       0.070700
     42 H16          1.1170     0.7950    -2.4810 hn         1 0H6       0.321500
     43 H17          4.5550     4.9410    -2.4330 ha         1 0H6       0.159000
     44 H19          1.1760     1.8340     2.1750 h5         1 0H6       0.081100
     45 C18          3.4300     6.0450    -4.6580 c          1 0H6       0.884200
     46 C25          3.8270    -1.3040     4.2680 c3         1 0H6       0.616600
@<TRIPOS>BOND
     1    26    46 1
     2    24    46 1
     3    25    46 1
     4    46    21 1
     5    21     6 2
     6    21    22 1
     7     6     9 1
     8    22    23 2
     9     3    12 1
    10     3     2 1
    11    14    11 2
    12     9    23 1
    13     9    10 1
    14    12     1 1
    15    12     4 1
    16     1    10 1
    17     2     7 1
    18    11    10 1
    19    11    13 1
    20     5    16 ar
    21     5    15 ar
    22     7     4 1
    23    16    17 ar
    24    13    15 1
    25    15    18 ar
    26    19    45 1
    27    17    45 1
    28    17     8 ar
    29    18     8 ar
    30    45    20 1
    31     1    27 1
    32     1    28 1
    33     2    29 1
    34     2    30 1
    35     3    31 1
    36     3    32 1
    37     4    33 1
    38     4    34 1
    39     5    35 1
    40     6    36 1
    41     7    37 1
    42     7    38 1
    43     8    39 1
    44    10    40 1
    45    12    41 1
    46    13    42 1
    47    16    43 1
    48    23    44 1
@<TRIPOS>SUBSTRUCTURE
     1 0H6         1 TEMP              0 ****  ****    0 ROOT
