@<TRIPOS>MOLECULE
0H7
   39    42     1     0     0
SMALL
bcc


@<TRIPOS>ATOM
      1 O1           0.0610    -0.1440    -0.2860 oh         1 0H7      -0.584800
      2 C2           1.4860    -0.1140    -0.1970 c3         1 0H7       0.327400
      3 C3           1.8590    -0.0270     1.3020 c3         1 0H7      -0.068700
      4 C4           1.1920     1.1770     2.0100 c3         1 0H7       0.143800
      5 N5           0.6260     0.8260     3.3200 n3         1 0H7      -0.660600
      6 C6          -0.4500    -0.1560     3.1070 c3         1 0H7       0.135300
      7 C7           0.0420    -1.4120     2.3670 c3         1 0H7      -0.105900
      8 C8           1.5460    -1.2880     2.1230 c3         1 0H7      -0.058700
      9 C9           2.2210    -1.1020     3.4860 c3         1 0H7      -0.105900
     10 C10          1.6780     0.1880     4.1290 c3         1 0H7       0.135300
     11 C11          2.0750    -1.3550    -0.8060 cc         1 0H7      -0.163900
     12 C12          3.4350    -1.6150    -0.8730 cd         1 0H7      -0.149500
     13 C13          3.7140    -2.8560    -1.5150 cd         1 0H7      -0.146000
     14 C14          2.5480    -3.4900    -1.9090 cc         1 0H7      -0.044700
     15 Cl1          2.4690    -4.9630    -2.6930 cl         1 0H7      -0.028900
     16 S16          1.1870    -2.5960    -1.4970 ss         1 0H7       0.096200
     17 C17          2.0150     1.0890    -0.9240 cc         1 0H7      -0.163900
     18 C18          1.3200     2.2730    -1.0960 cd         1 0H7      -0.149500
     19 C19          2.0810     3.2410    -1.8150 cd         1 0H7      -0.146000
     20 C20          3.3260     2.7450    -2.1600 cc         1 0H7      -0.044700
     21 Cl2          4.4970     3.5880    -3.0040 cl         1 0H7      -0.028900
     22 S22          3.5330     1.1640    -1.6340 ss         1 0H7       0.096200
     23 H1          -0.1730     0.0600    -1.2010 ho         1 0H7       0.409000
     24 H2           2.9760     0.1170     1.3190 hc         1 0H7       0.054700
     25 H3           0.3650     1.5880     1.3680 h1         1 0H7       0.062200
     26 H4           1.9530     1.9880     2.1660 h1         1 0H7       0.062200
     27 H6          -0.8710    -0.4360     4.1100 h1         1 0H7       0.053700
     28 H7          -1.2630     0.3430     2.5150 h1         1 0H7       0.053700
     29 H8          -0.4970    -1.5190     1.3920 hc         1 0H7       0.048950
     30 H9          -0.1640    -2.3260     2.9770 hc         1 0H7       0.048950
     31 H10          1.9380    -2.1990     1.6070 hc         1 0H7       0.063700
     32 H11          3.3300    -1.0370     3.3650 hc         1 0H7       0.048950
     33 H12          2.0000    -1.9830     4.1380 hc         1 0H7       0.048950
     34 H13          2.5100     0.9300     4.2660 h1         1 0H7       0.053700
     35 H14          1.2470    -0.0380     5.1410 h1         1 0H7       0.053700
     36 H15          4.2210    -0.9660    -0.4720 ha         1 0H7       0.162000
     37 H16          4.7240    -3.2420    -1.6670 ha         1 0H7       0.166000
     38 H17          0.3090     2.4590    -0.7240 ha         1 0H7       0.162000
     39 H18          1.7120     4.2410    -2.0520 ha         1 0H7       0.166000
@<TRIPOS>BOND
     1     1     2 1   
     2     1    23 1   
     3     2     3 1   
     4     2    11 1   
     5     2    17 1   
     6     3     4 1   
     7     3     8 1   
     8     3    24 1   
     9     4     5 1   
    10     4    25 1   
    11     4    26 1   
    12     5     6 1   
    13     5    10 1   
    14     6     7 1   
    15     6    27 1   
    16     6    28 1   
    17     7     8 1   
    18     7    29 1   
    19     7    30 1   
    20     8     9 1   
    21     8    31 1   
    22     9    10 1   
    23     9    32 1   
    24     9    33 1   
    25    10    34 1   
    26    10    35 1   
    27    11    12 2   
    28    11    16 1   
    29    12    13 1   
    30    12    36 1   
    31    13    14 2   
    32    13    37 1   
    33    14    15 1   
    34    14    16 1   
    35    17    18 2   
    36    17    22 1   
    37    18    19 1   
    38    18    38 1   
    39    19    20 2   
    40    19    39 1   
    41    20    21 1   
    42    20    22 1   
@<TRIPOS>SUBSTRUCTURE
     1 0H7         1 TEMP              0 ****  ****    0 ROOT
