@<TRIPOS>MOLECULE
molecule
   39    42     1     0     0
SMALL
bcc


@<TRIPOS>ATOM
      1 O1           0.0000     0.0000     0.0000 oh         1 0H7      -0.572800
      2 C2           1.4290     0.0000     0.0000 c3         1 0H7       0.319400
      3 C3           1.9390     0.0000     1.4420 c3         1 0H7      -0.091700
      4 C4           1.2920     1.1530     2.2150 c3         1 0H7       0.173800
      5 N5           0.5280     0.6130     3.3480 n3         1 0H7      -0.708600
      6 C6          -0.5580    -0.2600     2.8820 c3         1 0H7       0.162800
      7 C7           0.0360    -1.4530     2.1280 c3         1 0H7      -0.115900
      8 C8           1.5640    -1.3230     2.1210 c3         1 0H7      -0.067700
      9 C9           2.0580    -1.2860     3.5720 c3         1 0H7      -0.115900
     10 C10          1.4070    -0.0980     4.2870 c3         1 0H7       0.162800
     11 C11          1.9310    -1.2310    -0.7100 cc         1 0H7      -0.064900
     12 C12          1.2970    -1.8590    -1.7010 cd         1 0H7      -0.139000
     13 C13          1.9530    -2.9730    -2.2010 cd         1 0H7      -0.147500
     14 C14          3.1200    -3.2470    -1.6150 cc         1 0H7       0.071800
     15 Cl1          4.1610    -4.5730    -2.0280 cl         1 0H7      -0.050400
     16 S16          3.4460    -2.0550    -0.3620 ss         1 0H7      -0.095300
     17 C17          1.9320     1.2290    -0.7110 cd         1 0H7      -0.064900
     18 C18          1.1640     2.1220    -1.3380 cc         1 0H7      -0.139000
     19 C19          1.8500     3.1750    -1.9210 cc         1 0H7      -0.147500
     20 C20          3.1760     3.1350    -1.7670 cd         1 0H7       0.071800
     21 Cl2          4.2910     4.3140    -2.3840 cl         1 0H7      -0.050400
     22 S22          3.6190     1.7110    -0.8350 ss         1 0H7      -0.095300
     23 H1          -0.3140     0.0710    -0.8860 ho         1 0H7       0.404000
     24 H2           3.0160     0.1180     1.4470 hc         1 0H7       0.062700
     25 H3           0.6270     1.7000     1.5580 h1         1 0H7       0.063200
     26 H4           2.0630     1.8180     2.5840 h1         1 0H7       0.063200
     27 H6          -1.1260    -0.6170     3.7330 h1         1 0H7       0.053950
     28 H7          -1.2110     0.2970     2.2210 h1         1 0H7       0.053950
     29 H8          -0.2480    -2.3740     2.6230 hc         1 0H7       0.051200
     30 H9          -0.3330    -1.4590     1.1100 hc         1 0H7       0.051200
     31 H10          2.0100    -2.1570     1.5930 hc         1 0H7       0.064700
     32 H11          3.1350    -1.1730     3.5870 hc         1 0H7       0.051200
     33 H12          1.7830    -2.2060     4.0740 hc         1 0H7       0.051200
     34 H13          0.8250    -0.4560     5.1270 h1         1 0H7       0.053950
     35 H14          2.1770     0.5760     4.6410 h1         1 0H7       0.053950
     36 H15          0.3410    -1.5240    -2.0860 ha         1 0H7       0.151500
     37 H16          1.5490    -3.5740    -3.0060 ha         1 0H7       0.161000
     38 H17          0.0860     2.0310    -1.3870 ha         1 0H7       0.151500
     39 H18          1.3490     3.9700    -2.4600 ha         1 0H7       0.161000
@<TRIPOS>BOND
     1    21    20 1
     2    19    20 2
     3    19    18 1
     4    20    22 1
     5    18    17 2
     6    22    17 1
     7    17     2 1
     8    16    14 1
     9    16    11 1
    10    15    14 1
    11     1     2 1
    12    14    13 2
    13     2    11 1
    14     2     3 1
    15    11    12 2
    16    13    12 1
    17     4     3 1
    18     4     5 1
    19     3     8 1
    20     6     5 1
    21     6     7 1
    22     5    10 1
    23     7     8 1
    24     8     9 1
    25    10     9 1
    26     1    23 1
    27     3    24 1
    28     4    25 1
    29     4    26 1
    30     6    27 1
    31     6    28 1
    32     7    29 1
    33     7    30 1
    34     8    31 1
    35     9    32 1
    36     9    33 1
    37    10    34 1
    38    10    35 1
    39    12    36 1
    40    13    37 1
    41    18    38 1
    42    19    39 1
@<TRIPOS>SUBSTRUCTURE
     1 0H7         1 TEMP              0 ****  ****    0 ROOT
