@<TRIPOS>MOLECULE
0H9
   30    30     1     0     0
SMALL
bcc


@<TRIPOS>ATOM
      1 CAA          0.0000     0.0000     0.0000 c3         1 0H9       0.244700
      2 CAE          1.9210     0.0020     3.6050 ca         1 0H9      -0.046500
      3 CAF          4.0550    -0.0060     2.5180 ca         1 0H9      -0.046500
      4 CAG          1.2910     0.0000     2.3750 ca         1 0H9      -0.181500
      5 CAH          3.4310    -0.0030     1.2850 ca         1 0H9      -0.181500
      6 CAI          4.8730    -1.4030     6.7740 c3         1 0H9       0.173800
      7 CAK          5.0860    -2.8560     7.2030 c3         1 0H9      -0.055600
      8 CAN          3.3010     0.0020     3.6770 ca         1 0H9      -0.119300
      9 CAO          2.0460    -0.0030     1.2100 ca         1 0H9       0.136100
     10 NAL          4.2060    -1.3730     5.4650 n7         1 0H9      -0.597200
     11 OAB          5.0380    -2.4100     9.8330 o          1 0H9      -0.660533
     12 OAC          6.0630    -4.3750     9.1330 o          1 0H9      -0.660533
     13 OAD          7.2430    -2.4180     8.7110 o          1 0H9      -0.660533
     14 OAM          1.4290     0.0000     0.0000 os         1 0H9      -0.314900
     15 SAP          5.9090    -2.8940     8.8200 s6         1 0H9       0.958800
     16 H1          -0.3610    -0.8850     0.5110 h1         1 0H9      -0.006300
     17 H2          -0.3610     0.8840     0.5110 h1         1 0H9      -0.006300
     18 H3          -0.3610     0.0000    -1.0210 h1         1 0H9      -0.006300
     19 H4           1.3320     0.0060     4.5140 ha         1 0H9       0.107000
     20 H5           5.1370    -0.0060     2.5760 ha         1 0H9       0.107000
     21 H6           0.2090    -0.0000     2.3190 ha         1 0H9       0.111500
     22 H7           4.0230    -0.0070     0.3780 ha         1 0H9       0.111500
     23 H8           5.8310    -0.9030     6.7030 h1         1 0H9       0.010200
     24 H9           4.2550    -0.8970     7.5060 h1         1 0H9       0.010200
     25 H10          3.3610     0.5260     5.7390 h1         1 0H9       0.005200
     26 H11          4.9370     0.5200     4.9360 h1         1 0H9       0.005200
     27 H12          5.7040    -3.3610     6.4710 h1         1 0H9       0.052200
     28 H13          4.1270    -3.3550     7.2740 h1         1 0H9       0.052200
     29 H14          4.7700    -1.8540     4.7920 hn         1 0H9       0.251800
     30 CAJ          3.9850     0.0100     5.0190 c3         1 0H9       0.204100
@<TRIPOS>BOND
     1     1    14 1   
     2     1    16 1   
     3     1    17 1   
     4     1    18 1   
     5     2     4 ar  
     6     2     8 ar  
     7     2    19 1   
     8     3     5 ar  
     9     3     8 ar  
    10     3    20 1   
    11     4     9 ar  
    12     4    21 1   
    13     5     9 ar  
    14     5    22 1   
    15     6     7 1   
    16     6    10 1   
    17     6    23 1   
    18     6    24 1   
    19     7    15 1   
    20     7    27 1   
    21     7    28 1   
    22     8    30 1   
    23     9    14 1   
    24    10    29 1   
    25    10    30 1   
    26    11    15 1   
    27    12    15 1   
    28    13    15 1   
    29    25    30 1   
    30    26    30 1   
@<TRIPOS>SUBSTRUCTURE
     1 0H9         1 TEMP              0 ****  ****    0 ROOT
