@<TRIPOS>MOLECULE
molecule
   30    30     1     0     0
SMALL
bcc


@<TRIPOS>ATOM
      1 CAA          0.0000     0.0000     0.0000 c3         1 0H9       0.131700
      2 CAE          1.9210     0.0020     3.6050 ca         1 0H9      -0.080000
      3 CAF          4.0550    -0.0060     2.5180 ca         1 0H9      -0.080000
      4 CAG          1.2910     0.0000     2.3750 ca         1 0H9      -0.194000
      5 CAH          3.4310    -0.0030     1.2850 ca         1 0H9      -0.194000
      6 CAI          4.8730    -1.4030     6.7740 c3         1 0H9       0.178800
      7 CAK          5.0860    -2.8560     7.2030 c3         1 0H9      -0.255600
      8 CAN          3.3010     0.0020     3.6770 ca         1 0H9      -0.106300
      9 CAO          2.0460    -0.0030     1.2100 ca         1 0H9       0.127100
     10 NAL          4.2060    -1.3730     5.4650 n7         1 0H9      -0.812200
     11 OAB          5.0380    -2.4100     9.8330 o          1 0H9      -0.708200
     12 OAC          6.0630    -4.3750     9.1330 o          1 0H9      -0.708200
     13 OAD          7.2430    -2.4180     8.7110 o          1 0H9      -0.708200
     14 OAM          1.4290     0.0000     0.0000 os         1 0H9      -0.336900
     15 SAP          5.9090    -2.8940     8.8200 s6         1 0H9       1.255800
     16 H1          -0.3610    -0.8850     0.5110 h1         1 0H9       0.037033
     17 H2          -0.3610     0.8840     0.5110 h1         1 0H9       0.037033
     18 H3          -0.3610     0.0000    -1.0210 h1         1 0H9       0.037033
     19 H4           1.3320     0.0060     4.5140 ha         1 0H9       0.136500
     20 H5           5.1370    -0.0060     2.5760 ha         1 0H9       0.136500
     21 H6           0.2090    -0.0000     2.3190 ha         1 0H9       0.131500
     22 H7           4.0230    -0.0070     0.3780 ha         1 0H9       0.131500
     23 H8           5.8310    -0.9030     6.7030 h1         1 0H9       0.033200
     24 H9           4.2550    -0.8970     7.5060 h1         1 0H9       0.033200
     25 H10          3.3610     0.5260     5.7390 h1         1 0H9       0.033200
     26 H11          4.9370     0.5200     4.9360 h1         1 0H9       0.033200
     27 H12          5.7040    -3.3610     6.4710 h1         1 0H9       0.079200
     28 H13          4.1270    -3.3550     7.2740 h1         1 0H9       0.079200
     29 H14          4.7700    -1.8540     4.7920 hn         1 0H9       0.350800
     30 CAJ          3.9850     0.0100     5.0190 c3         1 0H9       0.201100
@<TRIPOS>BOND
     1     1    14 1   
     2    14     9 1   
     3     9     5 ar  
     4     9     4 ar  
     5     5     3 ar  
     6     4     2 ar  
     7     3     8 ar  
     8     2     8 ar  
     9     8    30 1   
    10    30    10 1   
    11    10     6 1   
    12     6     7 1   
    13     7    15 1   
    14    11    15 1   
    15    15    13 1   
    16    15    12 1   
    17     1    16 1   
    18     1    17 1   
    19     1    18 1   
    20     2    19 1   
    21     3    20 1   
    22     4    21 1   
    23     5    22 1   
    24     6    23 1   
    25     6    24 1   
    26    30    25 1   
    27    30    26 1   
    28     7    27 1   
    29     7    28 1   
    30    10    29 1   
@<TRIPOS>SUBSTRUCTURE
     1 0H9         1 TEMP              0 ****  ****    0 ROOT
