@<TRIPOS>MOLECULE
0H9
   31    31     1     0     0
SMALL
bcc


@<TRIPOS>ATOM
      1 CAA         -0.1630    -0.1990     0.3220 c3         1 0H9       0.108700
      2 CAE          2.3900     0.1850     3.6380 ca         1 0H9      -0.067500
      3 CAF          4.2420     0.4520     2.0990 ca         1 0H9      -0.067500
      4 CAG          1.5090     0.0470     2.5690 ca         1 0H9      -0.181500
      5 CAH          3.3810     0.3170     1.0210 ca         1 0H9      -0.181500
      6 CAI          6.2570    -0.5750     6.1300 c3         1 0H9       0.161800
      7 CAK          6.8810    -1.8610     6.5270 c3         1 0H9      -0.305600
      8 CAN          3.7550     0.3850     3.4130 ca         1 0H9      -0.214300
      9 CAO          2.0050     0.1110     1.2590 ca         1 0H9       0.164100
     10 NAL          5.3210    -0.7320     4.9590 ny         1 0H9      -0.770000
     11 OAB          8.8580    -0.5550     7.4460 o          1 0H9      -0.724200
     12 OAC          7.0450    -0.9620     8.8980 o          1 0H9      -0.724200
     13 OAD          8.5100    -2.7470     8.3110 o          1 0H9      -0.724200
     14 OAM          1.2370    -0.0130     0.1270 os         1 0H9      -0.314900
     15 SAP          7.9870    -1.4950     8.0080 s6         1 0H9       1.444800
     16 CAJ          4.6880     0.5580     4.5620 c3         1 0H9       0.168100
     17 H1          -0.5600    -0.2620    -0.7240 h1         1 0H9       0.054367
     18 H2          -0.3590    -1.1480     0.8770 h1         1 0H9       0.054367
     19 H3          -0.6040     0.6740     0.8610 h1         1 0H9       0.054367
     20 H4           2.0000     0.1440     4.6680 ha         1 0H9       0.141000
     21 H5           5.3150     0.6260     1.9180 ha         1 0H9       0.141000
     22 H6           0.4380    -0.1060     2.7620 ha         1 0H9       0.159500
     23 H7           3.7480     0.3700    -0.0150 ha         1 0H9       0.159500
     24 H8           5.6570    -0.1500     6.9890 hx         1 0H9       0.111200
     25 H9           7.0530     0.1710     5.8310 hx         1 0H9       0.111200
     26 H10          5.5160     1.2780     4.2990 hx         1 0H9       0.102700
     27 H11          4.1430     0.9630     5.4630 hx         1 0H9       0.102700
     28 H12          7.5380    -2.2960     5.7460 h1         1 0H9       0.082700
     29 H13          6.1490    -2.6240     6.8670 h1         1 0H9       0.082700
     30 H14          4.5960    -1.4110     5.2060 hn         1 0H9       0.434800
     31 HAL2         5.8440    -1.1170     4.1670 hn         1 0H9       0.434800
@<TRIPOS>BOND
     1     1    14 1   
     2     1    17 1   
     3     1    18 1   
     4     1    19 1   
     5     2     4 ar  
     6     2     8 ar  
     7     2    20 1   
     8     3     5 ar  
     9     3     8 ar  
    10     3    21 1   
    11     4     9 ar  
    12     4    22 1   
    13     5     9 ar  
    14     5    23 1   
    15     6     7 1   
    16     6    10 1   
    17     6    24 1   
    18     6    25 1   
    19     7    15 1   
    20     7    28 1   
    21     7    29 1   
    22     8    16 1   
    23     9    14 1   
    24    10    16 1   
    25    10    30 1   
    26    10    31 1   
    27    11    15 1   
    28    12    15 1   
    29    13    15 1   
    30    16    26 1   
    31    16    27 1   
@<TRIPOS>SUBSTRUCTURE
     1 0H9         1 TEMP              0 ****  ****    0 ROOT
