@<TRIPOS>MOLECULE
0HD
   38    40     1     0     0
SMALL
bcc


@<TRIPOS>ATOM
      1 C10          0.9350     0.0760     0.0310 ca         1 0HD      -0.113500
      2 N12         -1.3090    -4.5500     2.9840 ns         1 0HD      -0.394100
      3 C13         -1.5450    -5.9570     3.0270 ca         1 0HD      -0.054400
      4 C15         -2.5450    -7.8990     3.9970 ca         1 0HD      -0.210900
      5 C20         -1.2540    -8.1040     1.8870 ca         1 0HD      -0.105000
      6 C21         -1.0200    -6.7460     1.9600 ca         1 0HD      -0.115000
      7 O01         -1.2240    -4.1410     5.3040 o          1 0HD      -0.489100
      8 C02         -1.0550    -3.8320     4.1200 c          1 0HD       0.632100
      9 N03         -0.5800    -2.3790     3.9490 ny         1 0HD      -0.672800
     10 C04         -1.6590    -1.4870     3.4340 c3         1 0HD       0.109800
     11 C05         -1.1560    -0.0670     3.1830 c3         1 0HD      -0.060100
     12 C06          0.0160    -0.0540     2.2670 ca         1 0HD      -0.152300
     13 C07          1.3160    -0.1060     2.7890 ca         1 0HD      -0.138000
     14 C08          2.4160    -0.0710     1.9340 ca         1 0HD      -0.113500
     15 C09          2.2270     0.0170     0.5540 ca         1 0HD      -0.102000
     16 C11         -0.1680     0.0410     0.8840 ca         1 0HD      -0.138000
     17 C14         -2.3060    -6.5320     4.0530 ca         1 0HD      -0.029000
     18 C16         -2.0200    -8.6950     2.9060 ca         1 0HD      -0.036200
     19 N17         -2.4380   -10.0050     3.1520 na         1 0HD      -0.003100
     20 N18         -3.1630   -10.0920     4.2750 nc         1 0HD      -0.474100
     21 C19         -3.2590    -8.8640     4.8230 cd         1 0HD       0.359800
     22 H1           0.7840     0.1630    -1.0570 ha         1 0HD       0.155500
     23 H2          -1.0500    -4.1850     2.0910 hn         1 0HD       0.341500
     24 H3          -0.8510    -8.7030     1.0570 ha         1 0HD       0.162000
     25 H4          -0.4200    -6.2710     1.1670 ha         1 0HD       0.139000
     26 H5          -0.2920    -2.0540     4.8830 hn         1 0HD       0.465300
     27 H6          -2.0490    -1.9240     2.4700 hx         1 0HD       0.107200
     28 H7          -2.4930    -1.4770     4.1930 hx         1 0HD       0.107200
     29 H8          -0.8980     0.4320     4.1560 hc         1 0HD       0.094200
     30 H9          -2.0120     0.5100     2.7330 hc         1 0HD       0.094200
     31 H10          1.4740    -0.1240     3.8780 ha         1 0HD       0.135500
     32 H11          3.4360    -0.0960     2.3490 ha         1 0HD       0.155500
     33 H12          3.0980     0.0550    -0.1200 ha         1 0HD       0.158000
     34 H13         -1.1850     0.1110     0.4670 ha         1 0HD       0.135500
     35 H14         -2.7010    -5.9370     4.8930 ha         1 0HD       0.166000
     36 H15         -2.2550   -10.8130     2.6020 hn         1 0HD       0.343700
     37 H16         -3.8030    -8.6750     5.7510 h4         1 0HD       0.072800
     38 H032         0.2350    -2.3180     3.3250 hn         1 0HD       0.465300
@<TRIPOS>BOND
     1     1    15 ar  
     2     1    16 ar  
     3     1    22 1   
     4     2     3 1   
     5     2     8 1   
     6     2    23 1   
     7     3     6 ar  
     8     3    17 ar  
     9     4    17 ar  
    10     4    18 ar  
    11     4    21 1   
    12     5     6 ar  
    13     5    18 ar  
    14     5    24 1   
    15     6    25 1   
    16     7     8 2   
    17     8     9 1   
    18     9    10 1   
    19     9    26 1   
    20     9    38 1   
    21    10    11 1   
    22    10    27 1   
    23    10    28 1   
    24    11    12 1   
    25    11    29 1   
    26    11    30 1   
    27    12    13 ar  
    28    12    16 ar  
    29    13    14 ar  
    30    13    31 1   
    31    14    15 ar  
    32    14    32 1   
    33    15    33 1   
    34    16    34 1   
    35    17    35 1   
    36    18    19 1   
    37    19    20 1   
    38    19    36 1   
    39    20    21 2   
    40    21    37 1   
@<TRIPOS>SUBSTRUCTURE
     1 0HD         1 TEMP              0 ****  ****    0 ROOT
