@<TRIPOS>MOLECULE
molecule
   37    39     1     0     0
SMALL
bcc


@<TRIPOS>ATOM
      1 C10          0.0000     0.0000     0.0000 ca         1 0HD      -0.125000
      2 N12         -2.7630    -2.5810     7.1660 ns         1 0HD      -0.493100
      3 C13         -3.2160    -3.7870     7.7200 ca         1 0HD       0.025600
      4 C15         -4.0700    -6.0140     7.4520 ca         1 0HD      -0.237900
      5 C20         -3.7000    -5.1060     9.6650 ca         1 0HD      -0.145000
      6 C21         -3.2620    -3.9390     9.1060 ca         1 0HD      -0.111000
      7 O01         -1.7900    -3.6420     5.4750 o          1 0HD      -0.643100
      8 C02         -2.0890    -2.5870     5.9990 c          1 0HD       0.780100
      9 N03         -1.7470    -1.4230     5.4130 ns         1 0HD      -0.606900
     10 C04         -1.0140    -1.4290     4.1440 c3         1 0HD       0.133000
     11 C05         -0.7540     0.0110     3.6990 c3         1 0HD      -0.054100
     12 C06          0.0000     0.0050     2.3940 ca         1 0HD      -0.086300
     13 C07          1.3820    -0.0020     2.3940 ca         1 0HD      -0.121000
     14 C08          2.0730     0.0000     1.1970 ca         1 0HD      -0.125000
     15 C09          1.3820     0.0000     0.0000 ca         1 0HD      -0.126000
     16 C11         -0.6920     0.0060     1.1970 ca         1 0HD      -0.121000
     17 C14         -3.6200    -4.8140     6.8920 ca         1 0HD      -0.046000
     18 C16         -4.1080    -6.1610     8.8520 ca         1 0HD      -0.033200
     19 N17         -4.5840    -7.4220     9.1050 na         1 0HD      -0.057100
     20 N18         -4.8400    -8.0650     7.8890 nc         1 0HD      -0.502100
     21 C19         -4.5570    -7.2720     6.8940 cd         1 0HD       0.382800
     22 H1          -0.5410     0.0000    -0.9380 ha         1 0HD       0.131000
     23 H2          -2.9520    -1.7150     7.6300 hn         1 0HD       0.314500
     24 H3          -3.7300    -5.2110    10.7430 ha         1 0HD       0.131000
     25 H4          -2.9480    -3.1230     9.7450 ha         1 0HD       0.131000
     26 H5          -1.9860    -0.5540     5.8490 hn         1 0HD       0.305500
     27 H6          -0.0700    -1.9420     4.2760 h1         1 0HD       0.059200
     28 H7          -1.6010    -1.9400     3.3910 h1         1 0HD       0.059200
     29 H8          -0.1680     0.5220     4.4530 hc         1 0HD       0.050700
     30 H9          -1.6990     0.5250     3.5670 hc         1 0HD       0.050700
     31 H10          1.9240    -0.0020     3.3320 ha         1 0HD       0.131000
     32 H11          3.1560    -0.0030     1.1970 ha         1 0HD       0.131000
     33 H12          1.9240    -0.0020    -0.9380 ha         1 0HD       0.130000
     34 H13         -1.7750     0.0060     1.1970 ha         1 0HD       0.131000
     35 H14         -3.7160    -4.6450     5.8260 ha         1 0HD       0.160000
     36 H15         -4.7210    -7.8200    10.0130 hn         1 0HD       0.329700
     37 H16         -4.6580    -7.5070     5.8420 h4         1 0HD       0.064800
@<TRIPOS>BOND
     1    19    20 1
     2    19    18 1
     3    20    21 2
     4    18     5 ar
     5    18     4 ar
     6    21     4 1
     7     5     6 ar
     8     4    17 ar
     9     6     3 ar
    10    17     3 ar
    11     3     2 1
    12     2     8 1
    13     7     8 2
    14     8     9 1
    15     9    10 1
    16    10    11 1
    17    11    12 1
    18    13    12 ar
    19    13    14 ar
    20    12    16 ar
    21    14    15 ar
    22    16     1 ar
    23    15     1 ar
    24     1    22 1
    25     2    23 1
    26     5    24 1
    27     6    25 1
    28     9    26 1
    29    10    27 1
    30    10    28 1
    31    11    29 1
    32    11    30 1
    33    13    31 1
    34    14    32 1
    35    15    33 1
    36    16    34 1
    37    17    35 1
    38    19    36 1
    39    21    37 1
@<TRIPOS>SUBSTRUCTURE
     1 0HD         1 TEMP              0 ****  ****    0 ROOT
