@<TRIPOS>MOLECULE
0HD
   37    39     1     0     0
SMALL
bcc


@<TRIPOS>ATOM
      1 C10          0.0000     0.0000     0.0000 ca         1 0HD      -0.097000
      2 N12         -2.7630    -2.5810     7.1660 ns         1 0HD      -0.054100
      3 C13         -3.2160    -3.7870     7.7200 ca         1 0HD      -0.124400
      4 C15         -4.0700    -6.0140     7.4520 ca         1 0HD      -0.250900
      5 C20         -3.7000    -5.1060     9.6650 ca         1 0HD      -0.107000
      6 C21         -3.2620    -3.9390     9.1060 ca         1 0HD      -0.084000
      7 O01         -1.7900    -3.6420     5.4750 o          1 0HD      -0.691100
      8 C02         -2.0890    -2.5870     5.9990 c          1 0HD       0.564100
      9 N03         -1.7470    -1.4230     5.4130 ns         1 0HD      -0.224900
     10 C04         -1.0140    -1.4290     4.1440 c3         1 0HD       0.067000
     11 C05         -0.7540     0.0110     3.6990 c3         1 0HD       0.017900
     12 C06          0.0000     0.0050     2.3940 ca         1 0HD      -0.091300
     13 C07          1.3820    -0.0020     2.3940 ca         1 0HD      -0.094000
     14 C08          2.0730     0.0000     1.1970 ca         1 0HD      -0.097000
     15 C09          1.3820     0.0000     0.0000 ca         1 0HD      -0.100000
     16 C11         -0.6920     0.0060     1.1970 ca         1 0HD      -0.094000
     17 C14         -3.6200    -4.8140     6.8920 ca         1 0HD      -0.001000
     18 C16         -4.1080    -6.1610     8.8520 ca         1 0HD      -0.195200
     19 N17         -4.5840    -7.4220     9.1050 na         1 0HD       0.408900
     20 N18         -4.8400    -8.0650     7.8890 nc         1 0HD      -0.639100
     21 C19         -4.5570    -7.2720     6.8940 cd         1 0HD       0.442800
     22 H1          -0.5410     0.0000    -0.9380 ha         1 0HD       0.103000
     23 H2          -2.9520    -1.7150     7.6300 hn         1 0HD       0.157500
     24 H3          -3.7300    -5.2110    10.7430 ha         1 0HD       0.103000
     25 H4          -2.9480    -3.1230     9.7450 ha         1 0HD       0.101000
     26 H5          -1.9860    -0.5540     5.8490 hn         1 0HD       0.166500
     27 H6          -0.0700    -1.9420     4.2760 h1         1 0HD       0.030200
     28 H7          -1.6010    -1.9400     3.3910 h1         1 0HD       0.030200
     29 H8          -0.1680     0.5220     4.4530 hc         1 0HD       0.018700
     30 H9          -1.6990     0.5250     3.5670 hc         1 0HD       0.018700
     31 H10          1.9240    -0.0020     3.3320 ha         1 0HD       0.105000
     32 H11          3.1560    -0.0030     1.1970 ha         1 0HD       0.103000
     33 H12          1.9240    -0.0020    -0.9380 ha         1 0HD       0.103000
     34 H13         -1.7750     0.0060     1.1970 ha         1 0HD       0.105000
     35 H14         -3.7160    -4.6450     5.8260 ha         1 0HD       0.133000
     36 H15         -4.7210    -7.8200    10.0130 hn         1 0HD       0.150700
     37 H16         -4.6580    -7.5070     5.8420 h4         1 0HD       0.015800
@<TRIPOS>BOND
     1     1    15 ar  
     2     1    16 ar  
     3     1    22 1   
     4     2     3 1   
     5     2     8 1   
     6     2    23 1   
     7     3     6 ar  
     8     3    17 ar  
     9     4    17 ar  
    10     4    18 ar  
    11     4    21 1   
    12     5     6 ar  
    13     5    18 ar  
    14     5    24 1   
    15     6    25 1   
    16     7     8 2   
    17     8     9 1   
    18     9    10 1   
    19     9    26 1   
    20    10    11 1   
    21    10    27 1   
    22    10    28 1   
    23    11    12 1   
    24    11    29 1   
    25    11    30 1   
    26    12    13 ar  
    27    12    16 ar  
    28    13    14 ar  
    29    13    31 1   
    30    14    15 ar  
    31    14    32 1   
    32    15    33 1   
    33    16    34 1   
    34    17    35 1   
    35    18    19 1   
    36    19    20 1   
    37    19    36 1   
    38    20    21 2   
    39    21    37 1   
@<TRIPOS>SUBSTRUCTURE
     1 0HD         1 TEMP              0 ****  ****    0 ROOT
