@<TRIPOS>MOLECULE
0HK
   48    52     1     0     0
SMALL
bcc


@<TRIPOS>ATOM
      1 C28          0.0000     0.0000     0.0000 c          1 0HK       0.689100
      2 O29          1.2080     0.0000     0.0000 o          1 0HK      -0.526000
      3 C31          0.1150     0.6070    -2.3830 cc         1 0HK      -0.094900
      4 C32         -1.1170    -1.4060    -1.6840 cc         1 0HK      -0.094900
      5 C34          0.1660     1.9030    -2.6950 cd         1 0HK      -0.078000
      6 C35          1.0430     2.2220    -3.7180 cd         1 0HK      -0.146500
      7 C36          1.7030     1.1850    -4.2360 cc         1 0HK       0.044900
      8 C41         -2.2430    -2.0290    -1.3340 cd         1 0HK      -0.078000
      9 C42         -2.3590    -3.3270    -1.7980 cd         1 0HK      -0.146500
     10 C43         -1.3280    -3.7580    -2.5250 cc         1 0HK       0.044900
     11 O10         -3.3370     1.6980     2.4620 op         1 0HK      -0.307600
     12 O11         -0.6720     0.0000     1.1620 os         1 0HK      -0.412900
     13 O33         -1.9430     0.7850    -1.1650 oh         1 0HK      -0.604800
     14 S37          1.2200    -0.2930    -3.4140 ss         1 0HK      -0.199800
     15 S44         -0.1250    -2.4820    -2.6600 ss         1 0HK      -0.199800
     16 C3          -1.9080     0.0930     3.8360 c3         1 0HK       0.015500
     17 C4          -0.6570    -0.7300     3.4850 c3         1 0HK      -0.061900
     18 C5           0.1180    -0.0080     2.3800 c3         1 0HK       0.167100
     19 C6           0.4070     1.4340     2.8080 c3         1 0HK      -0.061900
     20 C7          -0.9240     2.1070     3.1790 c3         1 0HK       0.015500
     21 C8          -1.9640     1.7970     2.0780 cx         1 0HK       0.051600
     22 C9          -2.6140     0.4660     2.5110 cx         1 0HK       0.051600
     23 C30         -0.7530     0.0070    -1.3060 c3         1 0HK       0.348400
     24 N2          -1.4400     1.3960     4.3790 n4         1 0HK       0.019200
     25 H1          -0.4330     2.6490    -2.1870 ha         1 0HK       0.119500
     26 H2           1.1820     3.2370    -4.0710 ha         1 0HK       0.129000
     27 H3           2.4270     1.2440    -5.0400 h4         1 0HK       0.156500
     28 H4          -3.0080    -1.5560    -0.7300 ha         1 0HK       0.119500
     29 H5          -3.2220    -3.9470    -1.5860 ha         1 0HK       0.129000
     30 H6          -1.2460    -4.7430    -2.9700 h4         1 0HK       0.156500
     31 H7          -2.3770     0.8520    -1.9990 ho         1 0HK       0.435000
     32 H8          -0.8080     1.0240     6.3420 hx         1 0HK       0.079533
     33 H9           0.2410     2.1020     5.4120 hx         1 0HK       0.079533
     34 H10          0.2430     0.3640     5.0820 hx         1 0HK       0.079533
     35 H11         -2.5670    -0.4260     4.5210 hx         1 0HK       0.097700
     36 H12         -0.0300    -0.8290     4.3630 hc         1 0HK       0.067950
     37 H13         -0.9540    -1.7120     3.1390 hc         1 0HK       0.067950
     38 H14          1.0540    -0.5240     2.2000 h1         1 0HK       0.078700
     39 H15          1.0680     1.4340     3.6670 hc         1 0HK       0.067950
     40 H16          0.8720     1.9710     1.9900 hc         1 0HK       0.067950
     41 H17         -0.8130     3.1710     3.3510 hx         1 0HK       0.097700
     42 H18         -1.6850     1.7750     1.0310 h1         1 0HK       0.147200
     43 H19         -2.6650    -0.2320     1.6850 h1         1 0HK       0.147200
     44 H20         -2.3490     2.3560     6.0060 hx         1 0HK       0.079533
     45 H21         -3.4630     1.5200     4.9140 hx         1 0HK       0.079533
     46 H22         -2.7260     3.0510     4.4230 hx         1 0HK       0.079533
     47 C12         -2.5690     2.1290     4.9690 c3         1 0HK       0.001600
     48 C1          -0.3710     1.2090     5.3690 c3         1 0HK       0.001600
@<TRIPOS>BOND
     1     1     2 2   
     2     1    12 1   
     3     1    23 1   
     4     3     5 2   
     5     3    14 1   
     6     3    23 1   
     7     4     8 2   
     8     4    15 1   
     9     4    23 1   
    10     5     6 1   
    11     5    25 1   
    12     6     7 2   
    13     6    26 1   
    14     7    14 1   
    15     7    27 1   
    16     8     9 1   
    17     8    28 1   
    18     9    10 2   
    19     9    29 1   
    20    10    15 1   
    21    10    30 1   
    22    11    21 1   
    23    11    22 1   
    24    12    18 1   
    25    13    23 1   
    26    13    31 1   
    27    16    17 1   
    28    16    22 1   
    29    16    24 1   
    30    16    35 1   
    31    17    18 1   
    32    17    36 1   
    33    17    37 1   
    34    18    19 1   
    35    18    38 1   
    36    19    20 1   
    37    19    39 1   
    38    19    40 1   
    39    20    21 1   
    40    20    24 1   
    41    20    41 1   
    42    21    22 1   
    43    21    42 1   
    44    22    43 1   
    45    24    47 1   
    46    24    48 1   
    47    32    48 1   
    48    33    48 1   
    49    34    48 1   
    50    44    47 1   
    51    45    47 1   
    52    46    47 1   
@<TRIPOS>SUBSTRUCTURE
     1 0HK         1 TEMP              0 ****  ****    0 ROOT
