@<TRIPOS>MOLECULE
0HK
   48    52     1     0     0
SMALL
bcc


@<TRIPOS>ATOM
      1 C28         -0.2480    -0.2430     0.1010 c          1 0HK       0.615100
      2 O29          0.8770    -0.6780     0.3430 o          1 0HK      -0.522000
      3 C31         -1.8900    -1.4150    -1.2930 cc         1 0HK      -0.204900
      4 C32         -1.5990     1.0440    -1.5770 cc         1 0HK      -0.204900
      5 C34         -1.5360    -2.7120    -0.9440 cd         1 0HK      -0.150000
      6 C35         -2.6260    -3.6140    -1.1090 cd         1 0HK      -0.165500
      7 C36         -3.7500    -2.9600    -1.5780 cc         1 0HK      -0.184600
      8 C41         -2.5700     1.6500    -0.7860 cd         1 0HK      -0.150000
      9 C42         -3.0090     2.8810    -1.3440 cd         1 0HK      -0.165500
     10 C43         -2.3530     3.1520    -2.5330 cc         1 0HK      -0.184600
     11 O10         -3.3910     2.9730     3.1680 op         1 0HK      -0.367600
     12 O11         -0.9760     0.2880     1.1370 os         1 0HK      -0.439900
     13 O33          0.0950    -0.4310    -2.2300 oh         1 0HK      -0.574800
     14 S37         -3.4810    -1.3400    -1.8020 ss         1 0HK       0.171700
     15 S44         -1.2720     1.9700    -2.9330 ss         1 0HK       0.171700
     16 C3          -2.2110     0.9450     4.1110 c3         1 0HK       0.145500
     17 C4          -1.3690    -0.1480     3.4410 c3         1 0HK      -0.114400
     18 C5          -0.3450     0.3870     2.4260 c3         1 0HK       0.130100
     19 C6           0.1200     1.8430     2.6010 c3         1 0HK      -0.114400
     20 C7          -0.8860     2.7260     3.3460 c3         1 0HK       0.145500
     21 C8          -2.1590     2.7390     2.4730 cx         1 0HK       0.060600
     22 C9          -3.0100     1.6050     2.9670 cx         1 0HK       0.060600
     23 C30         -0.9470    -0.2600    -1.2720 c3         1 0HK       0.327400
     24 N2          -1.2830     2.0380     4.6650 n4         1 0HK      -0.617800
     25 H1          -0.5470    -3.0160    -0.5910 ha         1 0HK       0.153000
     26 H2          -2.5600    -4.6840    -0.8960 ha         1 0HK       0.162500
     27 H3          -4.7070    -3.4400    -1.7900 h4         1 0HK       0.186000
     28 H4          -2.9500     1.2350     0.1510 ha         1 0HK       0.153000
     29 H5          -3.7770     3.5120    -0.8920 ha         1 0HK       0.162500
     30 H6          -2.5270     4.0360    -3.1490 h4         1 0HK       0.186000
     31 H7           0.4680    -1.3160    -2.1060 ho         1 0HK       0.439000
     32 H8           0.4780     0.7710     4.8040 hx         1 0HK       0.103700
     33 H9           0.5440     2.3490     5.7160 hx         1 0HK       0.103700
     34 H10         -0.4990     0.9660     6.3310 hx         1 0HK       0.103700
     35 H11         -2.8530     0.5490     4.9400 hx         1 0HK       0.125200
     36 H12         -2.0790    -0.8370     2.9030 hc         1 0HK       0.098450
     37 H13         -0.8430    -0.7620     4.2160 hc         1 0HK       0.098450
     38 H14          0.5660    -0.2810     2.4570 h1         1 0HK       0.111700
     39 H15          0.2740     2.2930     1.5810 hc         1 0HK       0.098450
     40 H16          1.1150     1.8640     3.1170 hc         1 0HK       0.098450
     41 H17         -0.4850     3.7490     3.5680 hx         1 0HK       0.125200
     42 H18         -2.0800     3.1310     1.4460 h1         1 0HK       0.168700
     43 H19         -3.7100     0.9720     2.4020 h1         1 0HK       0.168700
     44 H20         -2.3330     2.3870     6.4910 hx         1 0HK       0.103700
     45 H21         -1.2840     3.7760     5.9060 hx         1 0HK       0.103700
     46 H22         -2.8890     3.4360     5.1020 hx         1 0HK       0.103700
     47 C12         -1.9940     2.9650     5.5900 c3         1 0HK       0.087100
     48 C1          -0.1200     1.4950     5.4150 c3         1 0HK       0.087100
@<TRIPOS>BOND
     1     1     2 2   
     2     1    12 1   
     3     1    23 1   
     4     3     5 2   
     5     3    14 1   
     6     3    23 1   
     7     4     8 2   
     8     4    15 1   
     9     4    23 1   
    10     5     6 1   
    11     5    25 1   
    12     6     7 2   
    13     6    26 1   
    14     7    14 1   
    15     7    27 1   
    16     8     9 1   
    17     8    28 1   
    18     9    10 2   
    19     9    29 1   
    20    10    15 1   
    21    10    30 1   
    22    11    21 1   
    23    11    22 1   
    24    12    18 1   
    25    13    23 1   
    26    13    31 1   
    27    16    17 1   
    28    16    22 1   
    29    16    24 1   
    30    16    35 1   
    31    17    18 1   
    32    17    36 1   
    33    17    37 1   
    34    18    19 1   
    35    18    38 1   
    36    19    20 1   
    37    19    39 1   
    38    19    40 1   
    39    20    21 1   
    40    20    24 1   
    41    20    41 1   
    42    21    22 1   
    43    21    42 1   
    44    22    43 1   
    45    24    47 1   
    46    24    48 1   
    47    32    48 1   
    48    33    48 1   
    49    34    48 1   
    50    44    47 1   
    51    45    47 1   
    52    46    47 1   
@<TRIPOS>SUBSTRUCTURE
     1 0HK         1 TEMP              0 ****  ****    0 ROOT
