@<TRIPOS>MOLECULE
0HL
   65    69     1     0     0
SMALL
bcc


@<TRIPOS>ATOM
      1 CAN          0.1780     0.6310     0.1110 ca         1 0HL       0.061000
      2 CAS          1.5680     0.4140     0.1430 ca         1 0HL      -0.044000
      3 CAY          2.3900     1.0360     1.1250 ca         1 0HL      -0.208000
      4 CBC          3.7500     0.8000     1.1210 ca         1 0HL       0.155100
      5 OBG          4.6510     1.3310     2.0060 os         1 0HL      -0.301900
      6 CBI          4.1320     2.2010     3.0100 c3         1 0HL       0.105700
      7 CBF          4.3470    -0.0610     0.1410 ca         1 0HL      -0.064000
      8 CBB          3.5610    -0.6640    -0.8050 ca         1 0HL      -0.119000
      9 CAX          2.1560    -0.4450    -0.8300 ca         1 0HL       0.025000
     10 CAT          1.3210    -1.0600    -1.8010 ca         1 0HL      -0.092000
     11 CAO         -0.0290    -0.8370    -1.8060 ca         1 0HL      -0.070000
     12 CAG         -0.6430     0.0260    -0.8450 ca         1 0HL      -0.545500
     13 SAC         -2.2060     0.3120    -0.9430 sy         1 0HL       1.492200
     14 OAH         -2.6190     1.5340    -0.4320 o          1 0HL      -0.596800
     15 OAI         -2.8600    -0.1900    -2.0520 o          1 0HL      -0.596800
     16 N           -2.7570    -0.9200     0.4460 nx         1 0HL      -0.598300
     17 CAD         -2.8210    -2.3060    -0.1120 c3         1 0HL       0.205100
     18 CAJ         -2.8120    -3.3650     0.9150 cc         1 0HL      -0.216300
     19 CAP         -1.7070    -3.6140     1.7880 cc         1 0HL      -0.151000
     20 CAU         -1.9500    -4.7080     2.5940 cd         1 0HL      -0.181100
     21 SAV         -3.4330    -5.3850     2.2820 ss         1 0HL       0.211200
     22 CAQ         -3.8300    -4.2910     1.1140 cd         1 0HL      -0.180100
     23 CA          -4.0130    -0.5820     1.1550 c3         1 0HL       0.033500
     24 C           -3.8620     0.7110     2.0110 c          1 0HL       0.697500
     25 O           -2.8480     0.9730     2.6710 o          1 0HL      -0.612500
     26 CB          -5.2570    -0.3240     0.2840 c3         1 0HL      -0.106400
     27 CAM         -5.9490     0.8960     0.9330 c3         1 0HL       0.090000
     28 NAK         -5.0290     1.4410     1.9170 n          1 0HL      -0.455800
     29 CAR         -5.2790     2.6750     2.6030 c3         1 0HL       0.173300
     30 CAW         -5.2240     3.9110     1.7690 cc         1 0HL      -0.140300
     31 CAZ         -6.0630     5.0290     2.0050 cc         1 0HL      -0.114000
     32 CBA         -4.3430     4.1620     0.7160 cd         1 0HL      -0.173100
     33 SBE         -4.5410     5.6460     0.0710 ss         1 0HL       0.317200
     34 CBD         -5.7680     6.0760     1.1220 cd         1 0HL      -0.334000
     35 CBH         -6.4510     7.3580     1.0350 cf         1 0HL       0.676800
     36 NBK         -6.5740     8.0230    -0.0400 n2         1 0HL      -0.700100
     37 NBJ         -6.9850     7.7980     2.4010 nz         1 0HL      -0.881600
     38 H1          -0.2700     1.3090     0.8640 ha         1 0HL       0.159000
     39 H2           1.9230     1.6950     1.8710 ha         1 0HL       0.154000
     40 H3           3.4070     1.6570     3.6620 h1         1 0HL       0.059033
     41 H4           5.0480     2.4930     3.5880 h1         1 0HL       0.059033
     42 H5           3.6560     3.0970     2.5430 h1         1 0HL       0.059033
     43 H6           5.4390    -0.2160     0.1770 ha         1 0HL       0.184000
     44 H7           4.0080    -1.3270    -1.5640 ha         1 0HL       0.168000
     45 H8           1.7830    -1.7200    -2.5560 ha         1 0HL       0.172000
     46 H9          -0.6670    -1.3080    -2.5760 ha         1 0HL       0.166000
     47 H10         -1.9120    -2.4210    -0.7770 hx         1 0HL       0.101200
     48 H11         -3.7490    -2.3770    -0.7530 hx         1 0HL       0.101200
     49 H12         -0.7890    -3.0220     1.7960 ha         1 0HL       0.154000
     50 H13         -1.2570    -5.1000     3.3420 h4         1 0HL       0.198000
     51 H14         -4.7660    -4.3200     0.5550 h4         1 0HL       0.184000
     52 H15         -4.2390    -1.4280     1.8780 hx         1 0HL       0.136700
     53 H16         -5.0010    -0.1020    -0.7830 hc         1 0HL       0.088200
     54 H17         -5.9350    -1.2130     0.2970 hc         1 0HL       0.088200
     55 H18         -6.9030     0.5840     1.4430 h1         1 0HL       0.072700
     56 H19         -6.1950     1.6730     0.1590 h1         1 0HL       0.072700
     57 H20         -4.5080     2.7710     3.4280 h1         1 0HL       0.084700
     58 H21         -6.3040     2.6030     3.0760 h1         1 0HL       0.084700
     59 H22         -6.8430     5.0300     2.7690 ha         1 0HL       0.151000
     60 H23         -3.5980     3.4340     0.3610 h4         1 0HL       0.226000
     61 H24         -7.0140     8.9150    -0.1020 hn         1 0HL       0.472400
     62 H25         -7.8120     7.2370     2.6290 hn         1 0HL       0.462467
     63 H26         -7.2380     8.7890     2.4200 hn         1 0HL       0.462467
     64 HBJ3        -6.2630     7.6210     3.1070 hn         1 0HL       0.462467
     65 H           -2.0270    -0.9140     1.1680 hn         1 0HL       0.454800
@<TRIPOS>BOND
     1     1     2 ar  
     2     1    12 ar  
     3     1    38 1   
     4     2     3 ar  
     5     2     9 ar  
     6     3     4 ar  
     7     3    39 1   
     8     4     5 1   
     9     4     7 ar  
    10     5     6 1   
    11     6    40 1   
    12     6    41 1   
    13     6    42 1   
    14     7     8 ar  
    15     7    43 1   
    16     8     9 ar  
    17     8    44 1   
    18     9    10 ar  
    19    10    11 ar  
    20    10    45 1   
    21    11    12 ar  
    22    11    46 1   
    23    12    13 1   
    24    13    14 2   
    25    13    15 2   
    26    13    16 1   
    27    16    17 1   
    28    16    23 1   
    29    16    65 1   
    30    17    18 1   
    31    17    47 1   
    32    17    48 1   
    33    18    19 1   
    34    18    22 2   
    35    19    20 2   
    36    19    49 1   
    37    20    21 1   
    38    20    50 1   
    39    21    22 1   
    40    22    51 1   
    41    23    24 1   
    42    23    26 1   
    43    23    52 1   
    44    24    25 2   
    45    24    28 1   
    46    26    27 1   
    47    26    53 1   
    48    26    54 1   
    49    27    28 1   
    50    27    55 1   
    51    27    56 1   
    52    28    29 1   
    53    29    30 1   
    54    29    57 1   
    55    29    58 1   
    56    30    31 1   
    57    30    32 2   
    58    31    34 2   
    59    31    59 1   
    60    32    33 1   
    61    32    60 1   
    62    33    34 1   
    63    34    35 1   
    64    35    36 2   
    65    35    37 1   
    66    36    61 1   
    67    37    62 1   
    68    37    63 1   
    69    37    64 1   
@<TRIPOS>SUBSTRUCTURE
     1 0HL         1 TEMP              0 ****  ****    0 ROOT
