@<TRIPOS>MOLECULE
molecule
   64    68     1     0     0
SMALL
bcc


@<TRIPOS>ATOM
      1 CAN          0.0000     0.0000     0.0000 ca         1 0HL       0.009000
      2 CAS          1.4050     0.0000     0.0000 ca         1 0HL      -0.028000
      3 CAY          2.1340     0.0000     1.2010 ca         1 0HL      -0.159000
      4 CBC          3.4990     0.0000     1.1630 ca         1 0HL       0.143100
      5 OBG          4.2020     0.0010     2.3260 os         1 0HL      -0.328900
      6 CBI          5.6270     0.0000     2.2220 c3         1 0HL       0.125700
      7 CBF          4.1830    -0.0010    -0.0570 ca         1 0HL      -0.179000
      8 CBB          3.5070    -0.0020    -1.2370 ca         1 0HL      -0.088000
      9 CAX          2.1010    -0.0000    -1.2350 ca         1 0HL      -0.028000
     10 CAT          1.3710    -0.0020    -2.4360 ca         1 0HL      -0.113000
     11 CAO          0.0100    -0.0010    -2.3970 ca         1 0HL      -0.071000
     12 CAG         -0.6730    -0.0060    -1.1830 ca         1 0HL      -0.308500
     13 SAC         -2.4350    -0.0060    -1.1790 sy         1 0HL       1.421200
     14 OAH         -2.8340     0.3840     0.1280 o          1 0HL      -0.652300
     15 OAI         -2.8390     0.6860    -2.3530 o          1 0HL      -0.652300
     16 N           -2.9260    -1.5750    -1.3690 n3         1 0HL      -0.794500
     17 CAD         -3.0590    -2.1450    -2.7130 c3         1 0HL       0.308100
     18 CAJ         -4.4920    -2.0320    -3.1660 cc         1 0HL      -0.151300
     19 CAP         -4.9850    -0.9070    -3.8050 cc         1 0HL      -0.148000
     20 CAU         -6.2740    -0.9710    -4.1400 cd         1 0HL      -0.072100
     21 SAV         -6.9370    -2.5210    -3.6390 ss         1 0HL      -0.148800
     22 CAQ         -5.3780    -3.0110    -2.9880 cd         1 0HL      -0.068100
     23 CA          -3.2270    -2.3970    -0.1940 c3         1 0HL       0.167500
     24 C           -2.6310    -1.7770     1.0510 c          1 0HL       0.693500
     25 O           -1.4600    -1.8350     1.3630 o          1 0HL      -0.636500
     26 CB          -4.7480    -2.4110     0.0810 c3         1 0HL      -0.122400
     27 CAM         -4.8950    -1.2610     1.1020 c3         1 0HL       0.096000
     28 NAK         -3.5870    -1.1540     1.7610 n          1 0HL      -0.455800
     29 CAR         -3.3550    -0.4560     3.0270 c3         1 0HL       0.196300
     30 CAW         -3.1140     1.0080     2.7560 cd         1 0HL      -0.125300
     31 CAZ         -4.1430     1.9090     2.5940 cd         1 0HL       0.020000
     32 CBA         -1.8860     1.5280     2.6640 cc         1 0HL       0.022900
     33 SBE         -1.9560     3.2040     2.3530 ss         1 0HL      -0.118800
     34 CBD         -3.7140     3.1810     2.3580 cc         1 0HL      -0.223000
     35 CBH         -4.5830     4.3490     2.1450 ce         1 0HL       0.587800
     36 NBK         -5.8830     4.2100     2.1730 n2         1 0HL      -0.699100
     37 NBJ         -4.0270     5.5910     1.9150 nz         1 0HL      -0.802600
     38 H1          -0.5450    -0.0040     0.9360 ha         1 0HL       0.158000
     39 H2           1.6180    -0.1170     2.1470 ha         1 0HL       0.147000
     40 H3           6.0620    -0.0240     3.2140 h1         1 0HL       0.046033
     41 H4           5.9480    -0.8720     1.6650 h1         1 0HL       0.046033
     42 H5           5.9520     0.8960     1.7070 h1         1 0HL       0.046033
     43 H6           5.2660    -0.0010    -0.0620 ha         1 0HL       0.144000
     44 H7           4.0490    -0.0020    -2.1740 ha         1 0HL       0.144000
     45 H8           1.8890     0.0020    -3.3880 ha         1 0HL       0.142000
     46 H9          -0.5500    -0.0070    -3.3250 ha         1 0HL       0.142000
     47 H10         -2.4190    -1.6030    -3.4000 h1         1 0HL       0.066700
     48 H11         -2.7670    -3.1880    -2.6950 h1         1 0HL       0.066700
     49 H12         -4.3700    -0.0410    -4.0170 ha         1 0HL       0.176000
     50 H13         -6.8280    -0.1880    -4.6430 h4         1 0HL       0.175000
     51 H14         -5.1720    -3.9610    -2.5110 h4         1 0HL       0.172000
     52 H15         -2.8580    -3.4070    -0.3260 h1         1 0HL       0.095700
     53 H16         -5.0520    -3.3550     0.5170 hc         1 0HL       0.079700
     54 H17         -5.3050    -2.1960    -0.8230 hc         1 0HL       0.079700
     55 H18         -5.1330    -0.3360     0.5920 h1         1 0HL       0.052200
     56 H19         -5.6600    -1.5030     1.8300 h1         1 0HL       0.052200
     57 H20         -2.4880    -0.8800     3.5190 h1         1 0HL       0.072200
     58 H21         -4.2230    -0.5670     3.6650 h1         1 0HL       0.072200
     59 H22         -5.1900     1.6330     2.6480 ha         1 0HL       0.179000
     60 H23         -0.9700     0.9620     2.7750 h4         1 0HL       0.204000
     61 H24         -6.4750     5.0030     2.0280 hn         1 0HL       0.428400
     62 H25         -3.7880     5.6750     0.9460 hn         1 0HL       0.464467
     63 H26         -4.6870     6.3030     2.1580 hn         1 0HL       0.464467
     64 HBJ3        -3.2020     5.6960     2.4720 hn         1 0HL       0.464467
@<TRIPOS>BOND
     1    22    21 1
     2    22    18 2
     3    21    20 1
     4    17    18 1
     5    17    16 1
     6    18    19 1
     7    15    13 2
     8    26    23 1
     9    26    27 1
    10    16    23 1
    11    16    13 1
    12    19    20 2
    13    23    24 1
    14    13    12 1
    15    13    14 2
    16    27    28 1
    17    11    12 ar
    18    11    10 ar
    19    12     1 ar
    20    10     9 ar
    21     1     2 ar
    22    24    28 1
    23    24    25 2
    24    28    29 1
    25     9     2 ar
    26     9     8 ar
    27     2     3 ar
    28     8     7 ar
    29     3     4 ar
    30    29    30 1
    31     7     4 ar
    32    32    30 2
    33    32    33 1
    34     4     5 1
    35    30    31 1
    36    33    34 1
    37     5     6 1
    38    31    34 2
    39    34    35 1
    40    35    36 2
    41    35    37 1
    42     1    38 1
    43     3    39 1
    44     6    40 1
    45     6    41 1
    46     6    42 1
    47     7    43 1
    48     8    44 1
    49    10    45 1
    50    11    46 1
    51    17    47 1
    52    17    48 1
    53    19    49 1
    54    20    50 1
    55    22    51 1
    56    23    52 1
    57    26    53 1
    58    26    54 1
    59    27    55 1
    60    27    56 1
    61    29    57 1
    62    29    58 1
    63    31    59 1
    64    32    60 1
    65    36    61 1
    66    37    62 1
    67    37    63 1
    68    64    37 1
@<TRIPOS>SUBSTRUCTURE
     1 0HL         1 TEMP              0 ****  ****    0 ROOT
