@<TRIPOS>MOLECULE
0HL
   64    68     1     0     0
SMALL
bcc


@<TRIPOS>ATOM
      1 CAN          0.0000     0.0000     0.0000 ca         1 0HL       0.025000
      2 CAS          1.4050     0.0000     0.0000 ca         1 0HL      -0.029000
      3 CAY          2.1340     0.0000     1.2010 ca         1 0HL      -0.143000
      4 CBC          3.4990     0.0000     1.1630 ca         1 0HL       0.154100
      5 OBG          4.2020     0.0010     2.3260 os         1 0HL      -0.308900
      6 CBI          5.6270     0.0000     2.2220 c3         1 0HL       0.243700
      7 CBF          4.1830    -0.0010    -0.0570 ca         1 0HL      -0.166000
      8 CBB          3.5070    -0.0020    -1.2370 ca         1 0HL      -0.052000
      9 CAX          2.1010    -0.0000    -1.2350 ca         1 0HL      -0.034000
     10 CAT          1.3710    -0.0020    -2.4360 ca         1 0HL      -0.086000
     11 CAO          0.0100    -0.0010    -2.3970 ca         1 0HL      -0.046000
     12 CAG         -0.6730    -0.0060    -1.1830 ca         1 0HL      -0.148500
     13 SAC         -2.4350    -0.0060    -1.1790 sy         1 0HL       1.046200
     14 OAH         -2.8340     0.3840     0.1280 o          1 0HL      -0.613800
     15 OAI         -2.8390     0.6860    -2.3530 o          1 0HL      -0.613800
     16 N           -2.9260    -1.5750    -1.3690 n3         1 0HL      -0.496500
     17 CAD         -3.0590    -2.1450    -2.7130 c3         1 0HL       0.318100
     18 CAJ         -4.4920    -2.0320    -3.1660 cc         1 0HL      -0.157300
     19 CAP         -4.9850    -0.9070    -3.8050 cc         1 0HL      -0.120000
     20 CAU         -6.2740    -0.9710    -4.1400 cd         1 0HL       0.005900
     21 SAV         -6.9370    -2.5210    -3.6390 ss         1 0HL      -0.266800
     22 CAQ         -5.3780    -3.0110    -2.9880 cd         1 0HL       0.004900
     23 CA          -3.2270    -2.3970    -0.1940 c3         1 0HL       0.131500
     24 C           -2.6310    -1.7770     1.0510 c          1 0HL       0.633500
     25 O           -1.4600    -1.8350     1.3630 o          1 0HL      -0.685500
     26 CB          -4.7480    -2.4110     0.0810 c3         1 0HL      -0.079400
     27 CAM         -4.8950    -1.2610     1.1020 c3         1 0HL       0.046000
     28 NAK         -3.5870    -1.1540     1.7610 n          1 0HL      -0.108800
     29 CAR         -3.3550    -0.4560     3.0270 c3         1 0HL       0.151300
     30 CAW         -3.1140     1.0080     2.7560 cc         1 0HL      -0.125300
     31 CAZ         -4.1430     1.9090     2.5940 cc         1 0HL       0.029000
     32 CBA         -1.8860     1.5280     2.6640 cd         1 0HL       0.115900
     33 SBE         -1.9560     3.2040     2.3530 ss         1 0HL      -0.209800
     34 CBD         -3.7140     3.1810     2.3580 cd         1 0HL      -0.230000
     35 CBH         -4.5830     4.3490     2.1450 cf         1 0HL       0.272800
     36 NBK         -5.8830     4.2100     2.1730 n2         1 0HL      -0.513100
     37 NBJ         -4.0270     5.5910     1.9150 nz         1 0HL       0.190400
     38 H1          -0.5450    -0.0040     0.9360 ha         1 0HL       0.138000
     39 H2           1.6180    -0.1160     2.1470 ha         1 0HL       0.120000
     40 H3           6.0620     0.0000     3.2140 h1         1 0HL       0.001367
     41 H4           5.9500    -0.8850     1.6870 h1         1 0HL       0.001367
     42 H5           5.9510     0.8840     1.6860 h1         1 0HL       0.001367
     43 H6           5.2660    -0.0010    -0.0620 ha         1 0HL       0.125000
     44 H7           4.0490    -0.0020    -2.1740 ha         1 0HL       0.113000
     45 H8           1.8890     0.0020    -3.3880 ha         1 0HL       0.114000
     46 H9          -0.5500    -0.0070    -3.3250 ha         1 0HL       0.118000
     47 H10         -2.4190    -1.6030    -3.4000 h1         1 0HL       0.029700
     48 H11         -2.7670    -3.1880    -2.6950 h1         1 0HL       0.029700
     49 H12         -4.3700    -0.0410    -4.0170 ha         1 0HL       0.154000
     50 H13         -6.8280    -0.1880    -4.6430 h4         1 0HL       0.151000
     51 H14         -5.1720    -3.9610    -2.5110 h4         1 0HL       0.152000
     52 H15         -2.8580    -3.4070    -0.3260 h1         1 0HL       0.057700
     53 H16         -5.3050    -2.1960    -0.8230 hc         1 0HL       0.050700
     54 H17         -5.0520    -3.3550     0.5170 hc         1 0HL       0.050700
     55 H18         -5.1330    -0.3360     0.5920 h1         1 0HL       0.020200
     56 H19         -5.6600    -1.5030     1.8300 h1         1 0HL       0.020200
     57 H20         -2.4880    -0.8800     3.5190 h1         1 0HL       0.036200
     58 H21         -4.2230    -0.5670     3.6650 h1         1 0HL       0.036200
     59 H22         -5.1900     1.6330     2.6480 ha         1 0HL       0.121000
     60 H23         -0.9700     0.9620     2.7750 h4         1 0HL       0.177000
     61 H24         -6.2870     3.3100     2.3400 hn         1 0HL       0.377400
     62 H25         -3.4600     5.8530     2.6970 hn         1 0HL       0.222800
     63 H26         -3.4610     5.5550     1.0900 hn         1 0HL       0.222800
     64 HBJ3        -4.7560     6.2650     1.7900 hn         1 0HL       0.222800
@<TRIPOS>BOND
     1     1     2 ar  
     2     1    12 ar  
     3     1    38 1   
     4     2     3 ar  
     5     2     9 ar  
     6     3     4 ar  
     7     3    39 1   
     8     4     5 1   
     9     4     7 ar  
    10     5     6 1   
    11     6    40 1   
    12     6    41 1   
    13     6    42 1   
    14     7     8 ar  
    15     7    43 1   
    16     8     9 ar  
    17     8    44 1   
    18     9    10 ar  
    19    10    11 ar  
    20    10    45 1   
    21    11    12 ar  
    22    11    46 1   
    23    12    13 1   
    24    13    14 2   
    25    13    15 2   
    26    13    16 1   
    27    16    17 1   
    28    16    23 1   
    29    17    18 1   
    30    17    47 1   
    31    17    48 1   
    32    18    19 1   
    33    18    22 2   
    34    19    20 2   
    35    19    49 1   
    36    20    21 1   
    37    20    50 1   
    38    21    22 1   
    39    22    51 1   
    40    23    24 1   
    41    23    26 1   
    42    23    52 1   
    43    24    25 2   
    44    24    28 1   
    45    26    27 1   
    46    26    53 1   
    47    26    54 1   
    48    27    28 1   
    49    27    55 1   
    50    27    56 1   
    51    28    29 1   
    52    29    30 1   
    53    29    57 1   
    54    29    58 1   
    55    30    31 1   
    56    30    32 2   
    57    31    34 2   
    58    31    59 1   
    59    32    33 1   
    60    32    60 1   
    61    33    34 1   
    62    34    35 1   
    63    35    36 2   
    64    35    37 1   
    65    36    61 1   
    66    37    62 1   
    67    37    63 1   
    68    37    64 1   
@<TRIPOS>SUBSTRUCTURE
     1 0HL         1 TEMP              0 ****  ****    0 ROOT
