@<TRIPOS>MOLECULE
0HM
   56    59     1     0     0
SMALL
bcc


@<TRIPOS>ATOM
      1 CAB          0.4300     2.6220     3.8140 ca         1 0HM      -0.125000
      2 CAC          0.1020     3.6610     4.6850 ca         1 0HM      -0.126500
      3 CAD         -0.9500     3.5100     5.5900 ca         1 0HM      -0.108000
      4 CAE         -1.6740     2.3180     5.6250 ca         1 0HM      -0.126500
      5 CAF         -1.3450     1.2740     4.7600 ca         1 0HM      -0.125000
      6 CAA         -0.2910     1.4240     3.8520 ca         1 0HM      -0.151300
      7 CAL          0.1300     0.2780     2.9810 c3         1 0HM       0.069600
      8 NAG         -0.8790    -0.1910     2.0620 na         1 0HM      -0.147900
      9 CAK         -1.4380    -1.4640     2.0400 cc         1 0HM      -0.200600
     10 CAJ         -2.3320    -1.4940     0.9420 cd         1 0HM       0.299200
     11 NAI         -2.3240    -0.2750     0.2920 nd         1 0HM      -0.693000
     12 CAH         -1.4380     0.5070     0.9770 cc         1 0HM       0.297800
     13 CBD         -1.1120     1.9220     0.6190 c3         1 0HM      -0.022000
     14 NAN         -2.3400     2.6880     0.3180 na         1 0HM       0.099900
     15 CAM         -2.8990     3.4590     1.2910 ca         1 0HM      -0.044300
     16 CAQ         -4.0920     4.1730     1.0720 ca         1 0HM      -0.091000
     17 CAR         -4.7380     4.0750    -0.1520 ca         1 0HM      -0.098000
     18 CAP         -4.1650     3.2610    -1.1530 ca         1 0HM       0.147100
     19 OBE         -4.7250     3.0700    -2.3820 oh         1 0HM      -0.462100
     20 CAO         -2.9500     2.5770    -0.9080 ca         1 0HM      -0.081900
     21 CAS         -2.2670     1.8200    -2.0390 c          1 0HM       0.705700
     22 OAU         -1.1840     2.2490    -2.4640 o          1 0HM      -0.544100
     23 NAT         -2.9540     0.7290    -2.5260 ns         1 0HM      -0.418100
     24 CAX         -2.5450    -0.0960    -3.5850 ca         1 0HM       0.119600
     25 CAY         -3.2810    -1.2850    -3.8320 ca         1 0HM      -0.159500
     26 CAZ         -2.9260    -2.1280    -4.8750 ca         1 0HM      -0.063000
     27 CAW         -1.4520     0.2080    -4.4280 ca         1 0HM      -0.159500
     28 CAV         -1.1090    -0.6500    -5.4660 ca         1 0HM      -0.063000
     29 CBA         -1.8370    -1.8220    -5.7010 ca         1 0HM      -0.223300
     30 CBB         -1.4130    -2.7670    -6.7660 c3         1 0HM       0.178100
     31 NBC         -2.0120    -2.4090    -8.0970 nz         1 0HM      -0.844600
     32 H1           1.2830     2.7360     3.1270 ha         1 0HM       0.142000
     33 H2           0.6890     4.5930     4.6730 ha         1 0HM       0.155500
     34 H3          -1.1940     4.3250     6.2900 ha         1 0HM       0.157000
     35 H4          -2.4920     2.1910     6.3510 ha         1 0HM       0.155500
     36 H5          -1.9030     0.3260     4.8080 ha         1 0HM       0.142000
     37 H6           1.0420     0.5680     2.3790 h1         1 0HM       0.089200
     38 H7           0.4170    -0.5920     3.6450 h1         1 0HM       0.089200
     39 H8          -1.1740    -2.2360     2.7650 h4         1 0HM       0.206000
     40 H9          -2.9590    -2.3250     0.6160 h4         1 0HM       0.059100
     41 H10         -0.4500     1.9480    -0.2990 h1         1 0HM       0.128200
     42 H11         -0.5720     2.4360     1.4720 h1         1 0HM       0.128200
     43 H12         -2.3760     3.5050     2.2720 h4         1 0HM       0.223000
     44 H13         -4.4980     4.7980     1.8890 ha         1 0HM       0.209000
     45 H14         -5.6790     4.6200    -0.3440 ha         1 0HM       0.196000
     46 H15         -5.4900     3.6660    -2.4780 ho         1 0HM       0.468000
     47 H16         -3.7480     0.4150    -2.0030 hn         1 0HM       0.353500
     48 H17         -4.1370    -1.5590    -3.1920 ha         1 0HM       0.176000
     49 H18         -3.5010    -3.0550    -5.0340 ha         1 0HM       0.148500
     50 H19         -0.8500     1.1210    -4.2720 ha         1 0HM       0.176000
     51 H20         -0.2370    -0.4020    -6.0940 ha         1 0HM       0.148500
     52 H21         -1.7390    -3.8210    -6.5240 hx         1 0HM       0.116200
     53 H22         -0.2900    -2.7540    -6.8910 hx         1 0HM       0.116200
     54 H23         -3.0350    -2.4380    -8.0410 hn         1 0HM       0.460133
     55 H24         -1.6950    -3.0670    -8.8160 hn         1 0HM       0.460133
     56 HBC3        -1.7310    -1.4590    -8.3620 hn         1 0HM       0.460133
@<TRIPOS>BOND
     1     1     2 ar  
     2     1     6 ar  
     3     1    32 1   
     4     2     3 ar  
     5     2    33 1   
     6     3     4 ar  
     7     3    34 1   
     8     4     5 ar  
     9     4    35 1   
    10     5     6 ar  
    11     5    36 1   
    12     6     7 1   
    13     7     8 1   
    14     7    37 1   
    15     7    38 1   
    16     8     9 1   
    17     8    12 1   
    18     9    10 2   
    19     9    39 1   
    20    10    11 1   
    21    10    40 1   
    22    11    12 2   
    23    12    13 1   
    24    13    14 1   
    25    13    41 1   
    26    13    42 1   
    27    14    15 1   
    28    14    20 2   
    29    15    16 ar  
    30    15    43 1   
    31    16    17 ar  
    32    16    44 1   
    33    17    18 ar  
    34    17    45 1   
    35    18    19 1   
    36    18    20 ar  
    37    19    46 1   
    38    20    21 1   
    39    21    22 2   
    40    21    23 1   
    41    23    24 1   
    42    23    47 1   
    43    24    25 ar  
    44    24    27 ar  
    45    25    26 ar  
    46    25    48 1   
    47    26    29 ar  
    48    26    49 1   
    49    27    28 ar  
    50    27    50 1   
    51    28    29 ar  
    52    28    51 1   
    53    29    30 1   
    54    30    31 1   
    55    30    52 1   
    56    30    53 1   
    57    31    54 1   
    58    31    55 1   
    59    31    56 1   
@<TRIPOS>SUBSTRUCTURE
     1 0HM         1 TEMP              0 ****  ****    0 ROOT
