@<TRIPOS>MOLECULE
0HM
   56    59     1     0     0
SMALL
bcc


@<TRIPOS>ATOM
      1 CAB          0.0000     0.0000     0.0000 ca         1 0HM      -0.084500
      2 CAC          1.3820     0.0000     0.0000 ca         1 0HM      -0.080500
      3 CAD          2.0740     0.0000     1.1960 ca         1 0HM      -0.062000
      4 CAE          1.3830     0.0010     2.3940 ca         1 0HM      -0.080500
      5 CAF          0.0010     0.0020     2.3940 ca         1 0HM      -0.084500
      6 CAA         -0.6910     0.0070     1.1970 ca         1 0HM      -0.162300
      7 CAL         -2.1980     0.0080     1.1980 c3         1 0HM       0.013600
      8 NAG         -2.6850     1.3820     1.3390 na         1 0HM       0.335100
      9 CAK         -3.0140     2.0110     2.5100 cc         1 0HM      -0.367600
     10 CAJ         -3.4120     3.2560     2.1840 cd         1 0HM       0.338200
     11 NAI         -3.3300     3.3830     0.8520 nd         1 0HM      -0.584000
     12 CAH         -2.8890     2.2660     0.3390 cc         1 0HM       0.082800
     13 CBD         -2.6570     2.0030    -1.1270 c3         1 0HM      -0.137000
     14 NAN         -3.9100     1.5690    -1.7490 na         1 0HM       0.731900
     15 CAM         -4.1650     0.2830    -1.8440 ca         1 0HM      -0.301300
     16 CAQ         -5.3390    -0.1730    -2.4260 ca         1 0HM       0.009000
     17 CAR         -6.2550     0.7410    -2.9140 ca         1 0HM      -0.097000
     18 CAP         -5.9630     2.0990    -2.8020 ca         1 0HM       0.243100
     19 OBE         -6.8320     3.0310    -3.2670 oh         1 0HM      -0.454100
     20 CAO         -4.7610     2.4850    -2.1990 ca         1 0HM      -0.348900
     21 CAS         -4.4340     3.9200    -2.0650 c          1 0HM       0.571700
     22 OAU         -4.8860     4.5630    -1.1380 o          1 0HM      -0.514100
     23 NAT         -3.6340     4.5150    -2.9700 ns         1 0HM      -0.023100
     24 CAX         -3.2110     5.8330    -2.7710 ca         1 0HM      -0.054400
     25 CAY         -2.9750     6.3000    -1.4830 ca         1 0HM      -0.100500
     26 CAZ         -2.5570     7.6020    -1.2890 ca         1 0HM      -0.038000
     27 CAW         -3.0190     6.6760    -3.8570 ca         1 0HM      -0.100500
     28 CAV         -2.6010     7.9760    -3.6560 ca         1 0HM      -0.038000
     29 CBA         -2.3730     8.4410    -2.3730 ca         1 0HM      -0.218300
     30 CBB         -1.9170     9.8600    -2.1570 c3         1 0HM       0.039100
     31 NBC         -0.4490     9.9130    -2.1800 nz         1 0HM       0.076400
     32 H1          -0.5420     0.0020    -0.9380 ha         1 0HM       0.096500
     33 H2           1.9240    -0.0030    -0.9380 ha         1 0HM       0.118000
     34 H3           3.1580    -0.0010     1.1960 ha         1 0HM       0.121000
     35 H4           1.9240    -0.0020     3.3330 ha         1 0HM       0.118000
     36 H5          -0.5400     0.0050     3.3330 ha         1 0HM       0.096500
     37 H6          -2.5590    -0.4100     0.2660 h1         1 0HM       0.039200
     38 H7          -2.5590    -0.5900     2.0260 h1         1 0HM       0.039200
     39 H8          -2.9620     1.5890     3.5070 h4         1 0HM       0.175000
     40 H9          -3.7440     4.0200     2.8770 h4         1 0HM       0.024100
     41 H10         -2.3110     2.9110    -1.6060 h1         1 0HM       0.078700
     42 H11         -1.9090     1.2280    -1.2400 h1         1 0HM       0.078700
     43 H12         -3.4470    -0.4330    -1.4620 h4         1 0HM       0.179000
     44 H13         -5.5370    -1.2350    -2.4980 ha         1 0HM       0.157000
     45 H14         -7.1790     0.4090    -3.3720 ha         1 0HM       0.162000
     46 H15         -7.6790     2.8950    -2.8760 ho         1 0HM       0.454000
     47 H16         -3.3680     4.0250    -3.8020 hn         1 0HM       0.177500
     48 H17         -3.1180     5.6440    -0.6330 ha         1 0HM       0.149000
     49 H18         -2.3740     7.9680    -0.2860 ha         1 0HM       0.116500
     50 H19         -3.1980     6.3140    -4.8620 ha         1 0HM       0.149000
     51 H20         -2.4550     8.6350    -4.5040 ha         1 0HM       0.116500
     52 H21         -2.3130    10.4900    -2.9440 hx         1 0HM       0.086700
     53 H22         -2.2760    10.2120    -1.1970 hx         1 0HM       0.086700
     54 H23         -0.1180     9.5920    -3.0680 hn         1 0HM       0.224467
     55 H24         -0.0830     9.3270    -1.4550 hn         1 0HM       0.224467
     56 HBC3        -0.1470    10.8550    -2.0320 hn         1 0HM       0.224467
@<TRIPOS>BOND
     1     1     2 ar  
     2     1     6 ar  
     3     1    32 1   
     4     2     3 ar  
     5     2    33 1   
     6     3     4 ar  
     7     3    34 1   
     8     4     5 ar  
     9     4    35 1   
    10     5     6 ar  
    11     5    36 1   
    12     6     7 1   
    13     7     8 1   
    14     7    37 1   
    15     7    38 1   
    16     8     9 1   
    17     8    12 1   
    18     9    10 2   
    19     9    39 1   
    20    10    11 1   
    21    10    40 1   
    22    11    12 2   
    23    12    13 1   
    24    13    14 1   
    25    13    41 1   
    26    13    42 1   
    27    14    15 1   
    28    14    20 2   
    29    15    16 ar  
    30    15    43 1   
    31    16    17 ar  
    32    16    44 1   
    33    17    18 ar  
    34    17    45 1   
    35    18    19 1   
    36    18    20 ar  
    37    19    46 1   
    38    20    21 1   
    39    21    22 2   
    40    21    23 1   
    41    23    24 1   
    42    23    47 1   
    43    24    25 ar  
    44    24    27 ar  
    45    25    26 ar  
    46    25    48 1   
    47    26    29 ar  
    48    26    49 1   
    49    27    28 ar  
    50    27    50 1   
    51    28    29 ar  
    52    28    51 1   
    53    29    30 1   
    54    30    31 1   
    55    30    52 1   
    56    30    53 1   
    57    31    54 1   
    58    31    55 1   
    59    31    56 1   
@<TRIPOS>SUBSTRUCTURE
     1 0HM         1 TEMP              0 ****  ****    0 ROOT
