@<TRIPOS>MOLECULE
molecule
   17    18     1     0     0
SMALL
bcc


@<TRIPOS>ATOM
      1 OAA          0.0000     0.0000     0.0000 o          1 0HN      -0.833800
      2 CAI          1.2150     0.0000     0.0000 c          1 0HN       0.885200
      3 OAB          1.8890     0.0000     1.1660 o          1 0HN      -0.833800
      4 CAJ          1.9520    -0.0060    -1.2770 ca         1 0HN      -0.097600
      5 CAE          1.2560    -0.0050    -2.4890 ca         1 0HN      -0.088000
      6 CAL          1.9490    -0.0110    -3.6830 ca         1 0HN       0.011100
      7 OAH          1.5180    -0.0130    -4.9780 os         1 0HN      -0.341900
      8 CAF          2.6530    -0.4320    -5.7600 c3         1 0HN       0.331200
      9 OAG          3.7840    -0.0210    -4.9690 os         1 0HN      -0.347900
     10 CAK          3.3450    -0.0160    -3.6780 ca         1 0HN       0.012100
     11 CAD          4.0370    -0.0160    -2.4740 ca         1 0HN      -0.143000
     12 CAC          3.3500    -0.0060    -1.2800 ca         1 0HN      -0.095000
     13 H2           0.1740     0.0490    -2.4910 ha         1 0HN       0.158000
     14 H3           2.6500    -1.5100    -5.8640 h2         1 0HN       0.050700
     15 H4           5.1200    -0.0160    -2.4740 ha         1 0HN       0.118000
     16 H5           3.8940    -0.0010    -0.3430 ha         1 0HN       0.163000
     17 H6           2.6590     0.0910    -6.7090 h2         1 0HN       0.050700
@<TRIPOS>BOND
     1     1     2 1   
     2     2     3 1   
     3     2     4 1   
     4     5     4 ar  
     5     5     6 ar  
     6     4    12 ar  
     7     6     7 1   
     8     6    10 ar  
     9     7     8 1   
    10    12    11 ar  
    11    10    11 ar  
    12    10     9 1   
    13     8     9 1   
    14     5    13 1   
    15     8    14 1   
    16    11    15 1   
    17    12    16 1   
    18     8    17 1   
@<TRIPOS>SUBSTRUCTURE
     1 0HN         1 TEMP              0 ****  ****    0 ROOT
