@<TRIPOS>MOLECULE
0HN
   17    18     1     0     0
SMALL
bcc


@<TRIPOS>ATOM
      1 OAA          0.0000     0.0000     0.0000 o          1 0HN      -0.883800
      2 CAI          1.2150     0.0000     0.0000 c          1 0HN       0.976200
      3 OAB          1.8890     0.0000     1.1660 o          1 0HN      -0.883800
      4 CAJ          1.9520    -0.0060    -1.2770 ca         1 0HN      -0.099600
      5 CAE          1.2560    -0.0050    -2.4890 ca         1 0HN      -0.063000
      6 CAL          1.9490    -0.0110    -3.6830 ca         1 0HN       0.014100
      7 OAH          1.5180    -0.0130    -4.9780 os         1 0HN      -0.326900
      8 CAF          2.6530    -0.4320    -5.7600 c3         1 0HN       0.426200
      9 OAG          3.7840    -0.0210    -4.9690 os         1 0HN      -0.332900
     10 CAK          3.3450    -0.0160    -3.6780 ca         1 0HN       0.015100
     11 CAD          4.0370    -0.0160    -2.4740 ca         1 0HN      -0.124000
     12 CAC          3.3500    -0.0060    -1.2800 ca         1 0HN      -0.068000
     13 H2           0.1740     0.0490    -2.4910 ha         1 0HN       0.128000
     14 H3           2.6500    -1.5100    -5.8640 h2         1 0HN      -0.002800
     15 H4           5.1200    -0.0160    -2.4740 ha         1 0HN       0.092000
     16 H5           3.8940    -0.0010    -0.3430 ha         1 0HN       0.133000
     17 H6           2.6590     0.0910    -6.7090 h2         1 0HN      -0.002800
@<TRIPOS>BOND
     1     1     2 1   
     2     2     3 1   
     3     2     4 1   
     4     4     5 ar  
     5     4    12 ar  
     6     5     6 ar  
     7     5    13 1   
     8     6     7 1   
     9     6    10 ar  
    10     7     8 1   
    11     8     9 1   
    12     8    14 1   
    13     8    17 1   
    14     9    10 1   
    15    10    11 ar  
    16    11    12 ar  
    17    11    15 1   
    18    12    16 1   
@<TRIPOS>SUBSTRUCTURE
     1 0HN         1 TEMP              0 ****  ****    0 ROOT
