@<TRIPOS>MOLECULE
0HN
   17    18     1     0     0
SMALL
bcc


@<TRIPOS>ATOM
      1 OAA         -0.0360     0.0110    -0.1140 o          1 0HN      -0.826800
      2 CAI          1.2190     0.0310     0.0230 c          1 0HN       0.910200
      3 OAB          1.8170    -0.0000     1.1340 o          1 0HN      -0.826800
      4 CAJ          2.0710     0.0960    -1.2410 ca         1 0HN      -0.127600
      5 CAE          1.4310     0.1330    -2.4960 ca         1 0HN      -0.078000
      6 CAL          2.2530     0.1920    -3.6040 ca         1 0HN       0.016100
      7 OAH          1.9020     0.2380    -4.9590 os         1 0HN      -0.349900
      8 CAF          3.1320     0.2900    -5.7040 c3         1 0HN       0.325200
      9 OAG          4.2300     0.2750    -4.7710 os         1 0HN      -0.356900
     10 CAK          3.6640     0.2140    -3.4920 ca         1 0HN       0.019100
     11 CAD          4.3000     0.1790    -2.2670 ca         1 0HN      -0.139000
     12 CAC          3.4630     0.1190    -1.1390 ca         1 0HN      -0.114000
     13 H2           0.3340     0.1140    -2.5510 ha         1 0HN       0.173000
     14 H3           3.1640     1.2490    -6.2790 h2         1 0HN       0.045700
     15 H4           5.3910     0.1960    -2.1780 ha         1 0HN       0.128000
     16 H5           3.9040     0.0880    -0.1280 ha         1 0HN       0.159000
     17 H6           3.2000    -0.6190    -6.3520 h2         1 0HN       0.045700
@<TRIPOS>BOND
     1     1     2 1   
     2     2     3 1   
     3     2     4 1   
     4     4     5 ar  
     5     4    12 ar  
     6     5     6 ar  
     7     5    13 1   
     8     6     7 1   
     9     6    10 ar  
    10     7     8 1   
    11     8     9 1   
    12     8    14 1   
    13     8    17 1   
    14     9    10 1   
    15    10    11 ar  
    16    11    12 ar  
    17    11    15 1   
    18    12    16 1   
@<TRIPOS>SUBSTRUCTURE
     1 0HN         1 TEMP              0 ****  ****    0 ROOT
