@<TRIPOS>MOLECULE
0HO
   15    16     1     0     0
SMALL
bcc


@<TRIPOS>ATOM
      1 OAA          0.0000     0.0000     0.0000 o          1 0HO      -0.875800
      2 CAI          1.2150     0.0000     0.0000 c          1 0HO       0.968200
      3 OAB          1.8880     0.0000     1.1670 o          1 0HO      -0.875800
      4 CAJ          1.9530    -0.0050    -1.2780 ca         1 0HO      -0.091600
      5 CAE          1.2520    -0.0110    -2.4660 ca         1 0HO      -0.073000
      6 CAL          1.9540    -0.0170    -3.6940 ca         1 0HO      -0.075000
      7 NAG          1.5140    -0.0220    -4.9430 nc         1 0HO      -0.255500
      8 SAH          2.7270    -0.0270    -5.9170 ss         1 0HO       0.401000
      9 NAF          3.9010    -0.0230    -4.8970 nc         1 0HO      -0.270500
     10 CAK          3.4150    -0.0170    -3.6660 ca         1 0HO      -0.072000
     11 CAD          4.0760    -0.0120    -2.4100 ca         1 0HO      -0.142000
     12 CAC          3.3610    -0.0000    -1.2640 ca         1 0HO      -0.016000
     13 H2           0.1730    -0.1150    -2.4590 ha         1 0HO       0.140000
     14 H3           5.1590    -0.0080    -2.3700 ha         1 0HO       0.104000
     15 H4           3.8810     0.0130    -0.3140 ha         1 0HO       0.134000
@<TRIPOS>BOND
     1     1     2 1   
     2     2     3 1   
     3     2     4 1   
     4     4     5 ar  
     5     4    12 ar  
     6     5     6 ar  
     7     5    13 1   
     8     6     7 2   
     9     6    10 ar  
    10     7     8 1   
    11     8     9 1   
    12     9    10 2   
    13    10    11 ar  
    14    11    12 ar  
    15    11    14 1   
    16    12    15 1   
@<TRIPOS>SUBSTRUCTURE
     1 0HO         1 TEMP              0 ****  ****    0 ROOT
