@<TRIPOS>MOLECULE
0HO
   15    16     1     0     0
SMALL
bcc


@<TRIPOS>ATOM
      1 OAA         -0.0940    -0.0890    -0.0720 o          1 0HO      -0.819300
      2 CAI          1.1590    -0.0410     0.0820 c          1 0HO       0.910200
      3 OAB          1.7540    -0.1330     1.1900 o          1 0HO      -0.819300
      4 CAJ          2.0120     0.1420    -1.1730 ca         1 0HO      -0.121600
      5 CAE          3.3700     0.2030    -1.0980 ca         1 0HO      -0.099000
      6 CAL          4.1490     0.3750    -2.2940 ca         1 0HO      -0.059000
      7 NAG          5.4710     0.4570    -2.4260 nc         1 0HO      -0.264500
      8 SAH          5.7870     0.6520    -4.0330 ss         1 0HO       0.353000
      9 NAF          4.2550     0.6410    -4.6440 nc         1 0HO      -0.277500
     10 CAK          3.4280     0.4840    -3.6110 ca         1 0HO      -0.061000
     11 CAD          1.9930     0.4110    -3.6110 ca         1 0HO      -0.163000
     12 CAC          1.3320     0.2470    -2.4360 ca         1 0HO      -0.055000
     13 H2           3.8790     0.1210    -0.1230 ha         1 0HO       0.174000
     14 H3           1.4680     0.4900    -4.5730 ha         1 0HO       0.133000
     15 H4           0.2280     0.1850    -2.3930 ha         1 0HO       0.169000
@<TRIPOS>BOND
     1     1     2 1   
     2     2     3 1   
     3     2     4 1   
     4     4     5 ar  
     5     4    12 ar  
     6     5     6 ar  
     7     5    13 1   
     8     6     7 2   
     9     6    10 ar  
    10     7     8 1   
    11     8     9 1   
    12     9    10 2   
    13    10    11 ar  
    14    11    12 ar  
    15    11    14 1   
    16    12    15 1   
@<TRIPOS>SUBSTRUCTURE
     1 0HO         1 TEMP              0 ****  ****    0 ROOT
