@<TRIPOS>MOLECULE
0HV
   34    36     1     0     0
SMALL
bcc


@<TRIPOS>ATOM
      1 C01         -0.4540    -0.3660     0.1900 ca         1 0HV      -0.100000
      2 C02          0.7570    -1.0330     0.0160 ca         1 0HV      -0.149000
      3 C03          1.7520    -0.9590     0.9860 ca         1 0HV      -0.172000
      4 C04          1.5340    -0.1960     2.1540 ca         1 0HV       0.062600
      5 C05          0.3100     0.4790     2.3230 ca         1 0HV      -0.102000
      6 C06         -0.6810     0.3890     1.3430 ca         1 0HV      -0.118600
      7 N07          2.5820    -0.0750     3.1060 nu         1 0HV      -0.616000
      8 C08          2.5010    -0.5040     4.4060 ca         1 0HV       0.270600
      9 C09          1.2880    -0.9850     4.9410 ca         1 0HV      -0.249000
     10 C10          1.2000    -1.4080     6.2580 ca         1 0HV       0.017000
     11 C11          2.3110    -1.3750     7.1060 ca         1 0HV      -0.271200
     12 C12          3.5720    -0.9070     6.6220 ca         1 0HV       0.066000
     13 C13          3.6650    -0.4530     5.2750 ca         1 0HV      -0.111000
     14 C14          4.7500    -0.8940     7.4230 ca         1 0HV      -0.139000
     15 C15          5.9440    -0.4240     6.9350 ca         1 0HV      -0.112000
     16 C16          6.0270     0.0640     5.6150 ca         1 0HV      -0.158000
     17 C17          4.9130     0.0460     4.8120 ca         1 0HV      -0.101000
     18 C18         -2.0080     1.1190     1.5350 c          1 0HV       0.909200
     19 O19         -2.8450     1.0640     0.5920 o          1 0HV      -0.820300
     20 O20         -2.1860     1.7310     2.6240 o          1 0HV      -0.820300
     21 N21          2.1070    -1.8410     8.4890 no         1 0HV       0.326200
     22 O22          2.8370    -1.4920     9.3840 o          1 0HV      -0.242500
     23 O23          1.1730    -2.5710     8.7180 o          1 0HV      -0.242500
     24 H1          -1.2530    -0.4130    -0.5680 ha         1 0HV       0.160000
     25 H2           0.9340    -1.6260    -0.8930 ha         1 0HV       0.113000
     26 H3           2.7010    -1.4920     0.8340 ha         1 0HV       0.110000
     27 H4           0.1000     1.0910     3.2170 ha         1 0HV       0.169000
     28 H5           3.4820     0.0770     2.7130 hn         1 0HV       0.428800
     29 H6           0.3830    -1.0220     4.3100 ha         1 0HV       0.180000
     30 H7           0.2270    -1.7770     6.6310 ha         1 0HV       0.166000
     31 H8           4.7150    -1.2620     8.4610 ha         1 0HV       0.165000
     32 H9           6.8420    -0.4200     7.5710 ha         1 0HV       0.128000
     33 H10          6.9830     0.4560     5.2400 ha         1 0HV       0.127000
     34 H11          5.0170     0.4480     3.7930 ha         1 0HV       0.123000
@<TRIPOS>BOND
     1     1     2 ar  
     2     1     6 ar  
     3     1    24 1   
     4     2     3 ar  
     5     2    25 1   
     6     3     4 ar  
     7     3    26 1   
     8     4     5 ar  
     9     4     7 1   
    10     5     6 ar  
    11     5    27 1   
    12     6    18 1   
    13     7     8 1   
    14     7    28 1   
    15     8     9 ar  
    16     8    13 ar  
    17     9    10 ar  
    18     9    29 1   
    19    10    11 ar  
    20    10    30 1   
    21    11    12 ar  
    22    11    21 1   
    23    12    13 ar  
    24    12    14 ar  
    25    13    17 ar  
    26    14    15 ar  
    27    14    31 1   
    28    15    16 ar  
    29    15    32 1   
    30    16    17 ar  
    31    16    33 1   
    32    17    34 1   
    33    18    19 1   
    34    18    20 1   
    35    21    22 1   
    36    21    23 1   
@<TRIPOS>SUBSTRUCTURE
     1 0HV         1 TEMP              0 ****  ****    0 ROOT
