@<TRIPOS>MOLECULE
molecule
   34    36     1     0     0
SMALL
bcc


@<TRIPOS>ATOM
      1 C01          0.0000     0.0000     0.0000 ca         1 0HV      -0.101000
      2 C02          1.3800     0.0000     0.0000 ca         1 0HV      -0.142000
      3 C03          2.0760     0.0000     1.1950 ca         1 0HV      -0.179000
      4 C04          1.3910    -0.0010     2.4040 ca         1 0HV       0.094600
      5 C05          0.0050    -0.0010     2.4160 ca         1 0HV      -0.140000
      6 C06         -0.6980    -0.0000     1.2100 ca         1 0HV      -0.081600
      7 N07          2.1000    -0.0010     3.6080 nu         1 0HV      -0.647000
      8 C08          1.6390     0.7480     4.6890 ca         1 0HV       0.249600
      9 C09          0.5820     1.6190     4.5300 ca         1 0HV      -0.232000
     10 C10          0.1130     2.3720     5.6030 ca         1 0HV       0.007000
     11 C11          0.6840     2.2710     6.8350 ca         1 0HV      -0.228200
     12 C12          1.7640     1.3950     7.0390 ca         1 0HV       0.062000
     13 C13          2.2450     0.6190     5.9570 ca         1 0HV      -0.070000
     14 C14          2.3710     1.2700     8.3010 ca         1 0HV      -0.123000
     15 C15          3.4150     0.4100     8.4630 ca         1 0HV      -0.138000
     16 C16          3.8920    -0.3480     7.3960 ca         1 0HV      -0.174000
     17 C17          3.3200    -0.2600     6.1640 ca         1 0HV      -0.110000
     18 C18         -2.1760    -0.0010     1.2140 c          1 0HV       0.879200
     19 O19         -2.8520    -0.0010     0.0480 o          1 0HV      -0.827800
     20 O20         -2.7800    -0.0010     2.2670 o          1 0HV      -0.827800
     21 N21          0.1660     3.0840     7.9600 no         1 0HV       0.305200
     22 O22          0.9390     3.5690     8.7660 o          1 0HV      -0.226500
     23 O23         -1.0320     3.2670     8.0780 o          1 0HV      -0.226500
     24 H1          -0.5420     0.0000    -0.9380 ha         1 0HV       0.160000
     25 H2           1.9200     0.0000    -0.9390 ha         1 0HV       0.113000
     26 H3           3.1590     0.0000     1.1880 ha         1 0HV       0.107000
     27 H4          -0.5310    -0.0010     3.3580 ha         1 0HV       0.164000
     28 H5           2.9400    -0.5380     3.6940 hn         1 0HV       0.441800
     29 H6           0.1110     1.7180     3.5600 ha         1 0HV       0.192000
     30 H7          -0.7190     3.0500     5.4550 ha         1 0HV       0.160000
     31 H8           2.1510     1.5640     9.3200 ha         1 0HV       0.159000
     32 H9           3.9450     0.2750     9.3980 ha         1 0HV       0.122000
     33 H10          4.7320    -0.9950     7.6190 ha         1 0HV       0.120000
     34 H11          3.8900    -0.9870     5.5980 ha         1 0HV       0.137000
@<TRIPOS>BOND
     1    20    18 1   
     2    19    18 1   
     3     1     2 ar  
     4     1     6 ar  
     5    18     6 1   
     6     2     3 ar  
     7     6     5 ar  
     8     3     4 ar  
     9     5     4 ar  
    10     4     7 1   
    11     7     8 1   
    12     8     9 ar  
    13     8    13 ar  
    14     9    10 ar  
    15    17    13 ar  
    16    17    16 ar  
    17    13    12 ar  
    18    10    11 ar  
    19    16    15 ar  
    20    12    11 ar  
    21    12    14 ar  
    22    11    21 1   
    23    15    14 ar  
    24    21    23 1   
    25    21    22 1   
    26     1    24 1   
    27     2    25 1   
    28     3    26 1   
    29     5    27 1   
    30     7    28 1   
    31     9    29 1   
    32    10    30 1   
    33    14    31 1   
    34    15    32 1   
    35    16    33 1   
    36    17    34 1   
@<TRIPOS>SUBSTRUCTURE
     1 0HV         1 TEMP              0 ****  ****    0 ROOT
