@<TRIPOS>MOLECULE
0HX
   40    40     1     0     0
SMALL
bcc


@<TRIPOS>ATOM
      1 C4           0.0000     0.0000     0.0000 c3         1 0HX      -0.044900
      2 C5           1.5300     0.0000     0.0000 c3         1 0HX      -0.003600
      3 C6           0.3840    -1.0470     3.4050 c3         1 0HX       0.361900
      4 C11          0.5500    -2.4160     4.0770 c3         1 0HX      -0.029300
      5 C7           2.4130    -0.4060     4.4770 ce         1 0HX       0.096900
      6 C8           3.5440     0.5330     4.5640 c          1 0HX       0.977800
      7 C9           2.1730    -1.2030     5.5070 c2         1 0HX      -0.372200
      8 C10          1.0360    -2.1890     5.5130 c3         1 0HX       0.253300
      9 C13         -2.0940    -5.1830     4.1750 c3         1 0HX      -0.071100
     10 N1          -0.7360    -3.1170     4.0970 ns         1 0HX      -0.180900
     11 C3          -0.5100     0.0000     1.4420 c3         1 0HX       0.172100
     12 C2          -2.0350     0.1210     1.4430 c3         1 0HX      -0.044900
     13 O1          -0.1290    -1.2190     2.0810 os         1 0HX      -0.396600
     14 O2           1.6660    -0.4170     3.3460 os         1 0HX      -0.286900
     15 O3           3.8160     1.3580     3.5330 o          1 0HX      -0.870300
     16 O4           4.2320     0.5660     5.5650 o          1 0HX      -0.870300
     17 O5           1.4820    -3.4280     6.0670 oh         1 0HX      -0.565800
     18 O6           0.2640    -5.0930     4.1970 o          1 0HX      -0.626100
     19 H1          -0.3610     0.8840    -0.5110 hc         1 0HX       0.010950
     20 H2          -0.3610    -0.8840    -0.5110 hc         1 0HX       0.010950
     21 H3           1.8910     0.0740    -1.0190 hc         1 0HX       0.008033
     22 H4           1.8910    -0.9190     0.4450 hc         1 0HX       0.008033
     23 H5           1.8910     0.8450     0.5730 hc         1 0HX       0.008033
     24 H6          -0.2950    -0.4360     3.9880 h2         1 0HX      -0.000300
     25 H7           1.2820    -3.0010     3.5340 h1         1 0HX       0.092700
     26 H8           2.8170    -1.1430     6.3760 ha         1 0HX       0.152000
     27 H9           0.2220    -1.7940     6.1090 h1         1 0HX      -0.019300
     28 H10         -1.9230    -6.2510     4.2200 hc         1 0HX       0.014033
     29 H11         -2.6630    -4.8710     5.0430 hc         1 0HX       0.014033
     30 H12         -2.6470    -4.9430     3.2750 hc         1 0HX       0.014033
     31 H13         -1.5900    -2.5950     4.0880 hn         1 0HX       0.163500
     32 H14         -0.0810     0.8380     1.9770 h1         1 0HX       0.042700
     33 H15         -1.8510     0.8920     3.4420 hc         1 0HX       0.008033
     34 H16         -2.5850    -0.7160     3.3460 hc         1 0HX       0.008033
     35 H17         -3.5200     0.7120     2.8810 hc         1 0HX       0.008033
     36 H18         -2.4680    -0.7660     0.9970 hc         1 0HX       0.010950
     37 H19         -2.3290     0.9930     0.8720 hc         1 0HX       0.010950
     38 H21          1.5060    -3.3610     7.0070 ho         1 0HX       0.376000
     39 C12         -0.7700    -4.4630     4.1570 c          1 0HX       0.562100
     40 C1          -2.5340     0.2630     2.8830 c3         1 0HX      -0.003600
@<TRIPOS>BOND
     1     1     2 1   
     2     1    11 1   
     3     1    19 1   
     4     1    20 1   
     5     2    21 1   
     6     2    22 1   
     7     2    23 1   
     8     3     4 1   
     9     3    13 1   
    10     3    14 1   
    11     3    24 1   
    12     4     8 1   
    13     4    10 1   
    14     4    25 1   
    15     5     6 1   
    16     5     7 2   
    17     5    14 1   
    18     6    15 1   
    19     6    16 1   
    20     7     8 1   
    21     7    26 1   
    22     8    17 1   
    23     8    27 1   
    24     9    28 1   
    25     9    29 1   
    26     9    30 1   
    27     9    39 1   
    28    10    31 1   
    29    10    39 1   
    30    11    12 1   
    31    11    13 1   
    32    11    32 1   
    33    12    36 1   
    34    12    37 1   
    35    12    40 1   
    36    17    38 1   
    37    18    39 2   
    38    33    40 1   
    39    34    40 1   
    40    35    40 1   
@<TRIPOS>SUBSTRUCTURE
     1 0HX         1 TEMP              0 ****  ****    0 ROOT
