@<TRIPOS>MOLECULE
0HY
   34    35     1     0     0
SMALL
bcc


@<TRIPOS>ATOM
      1 O1           0.1560     0.3570    -0.0580 o          1 0HY      -0.492500
      2 N1           4.2870    -0.0370    -2.3380 nz         1 0HY      -0.814600
      3 C1           2.1490     0.2330     1.3280 cc         1 0HY      -0.350400
      4 C2           1.3690     0.2660     0.1020 c          1 0HY       0.741700
      5 N2           4.2500     0.0420     0.0510 nd         1 0HY      -0.630300
      6 C3           2.0480    -2.4480     5.0760 c          1 0HY       0.637100
      7 N3           3.7180     0.0880     3.6630 nc         1 0HY      -0.347400
      8 C4           2.4080     0.1540     3.7910 cd         1 0HY       0.333300
      9 C5           2.9750    -4.4420     5.9940 c3         1 0HY       0.123700
     10 C6           3.5520     0.1270     1.2790 cd         1 0HY       0.406600
     11 C7           1.4680     0.2820     2.6260 c          1 0HY       0.486000
     12 C8           1.0990    -1.3110     5.3070 c3         1 0HY      -0.135400
     13 N4           4.2820     0.1290     2.4600 na         1 0HY      -0.356100
     14 C9           3.5100     0.0690    -1.0490 cc         1 0HY       0.591800
     15 C10          2.6750     0.3690     6.3020 c3         1 0HY      -0.098100
     16 N5           2.1390     0.1780    -1.1280 ns         1 0HY      -0.501400
     17 O2           2.7070    -2.7060     4.0630 o          1 0HY      -0.574000
     18 O3           2.1330    -3.2950     6.1390 os         1 0HY      -0.422900
     19 C11          1.7490     0.0600     5.1460 c3         1 0HY      -0.079000
     20 O4           0.2520     0.4170     2.7670 o          1 0HY      -0.478100
     21 H1           4.1160     0.7980    -2.9120 hn         1 0HY       0.486133
     22 H2           5.2960    -0.1060    -2.1330 hn         1 0HY       0.486133
     23 H3           2.6180    -5.0700     5.1440 h1         1 0HY       0.056367
     24 H4           4.0290    -4.1170     5.8170 h1         1 0HY       0.056367
     25 H5           2.8660    -4.9710     6.9730 h1         1 0HY       0.056367
     26 H6           0.6650    -1.3870     6.3400 hc         1 0HY       0.100700
     27 H7           0.2610    -1.4170     4.5640 hc         1 0HY       0.100700
     28 H8           3.4620    -0.4170     6.4090 hc         1 0HY       0.055367
     29 H9           2.0850     0.4050     7.2510 hc         1 0HY       0.055367
     30 H10          3.1720     1.3580     6.1570 hc         1 0HY       0.055367
     31 H11          1.6380     0.1900    -1.9920 hn         1 0HY       0.354500
     32 H12          0.9130     0.8240     5.1390 hc         1 0HY       0.100700
     33 H14          5.2770    -0.0280     2.4660 hn         1 0HY       0.508800
     34 H13          3.9910    -0.8790    -2.8470 hn         1 0HY       0.486133
@<TRIPOS>BOND
     1     1     4 2   
     2     2    14 1   
     3     2    21 1   
     4     2    22 1   
     5     2    34 1   
     6     3     4 1   
     7     3    10 2   
     8     3    11 1   
     9     4    16 1   
    10     5    10 1   
    11     5    14 2   
    12     6    12 1   
    13     6    17 2   
    14     6    18 1   
    15     7     8 2   
    16     7    13 1   
    17     8    11 1   
    18     8    19 1   
    19     9    18 1   
    20     9    23 1   
    21     9    24 1   
    22     9    25 1   
    23    10    13 1   
    24    11    20 2   
    25    12    19 1   
    26    12    26 1   
    27    12    27 1   
    28    13    33 1   
    29    14    16 1   
    30    15    19 1   
    31    15    28 1   
    32    15    29 1   
    33    15    30 1   
    34    16    31 1   
    35    19    32 1   
@<TRIPOS>SUBSTRUCTURE
     1 0HY         1 TEMP              0 ****  ****    0 ROOT
