@<TRIPOS>MOLECULE
molecule
   34    35     1     0     0
SMALL
bcc


@<TRIPOS>ATOM
      1 O1           0.0000     0.0000     0.0000 o          1 0HY      -0.499500
      2 N1           3.9600    -0.0090    -2.3180 nz         1 0HY      -0.747600
      3 C1           1.9760     0.0000     1.2500 cc         1 0HY      -0.353400
      4 C2           1.2180     0.0000     0.0000 c          1 0HY       0.712700
      5 N2           3.9760    -0.0080    -0.0110 nd         1 0HY      -0.642300
      6 C3           1.9420    -0.2160     7.4740 c          1 0HY       0.630100
      7 N3           3.4540     0.0110     3.5820 nd         1 0HY      -0.363400
      8 C4           2.1580     0.0130     3.6810 cc         1 0HY       0.358300
      9 C5           2.0050    -0.4420     9.8460 c3         1 0HY       0.138700
     10 C6           3.3820    -0.0010     1.1830 cd         1 0HY       0.401600
     11 C7           1.3440     0.0060     2.5150 c          1 0HY       0.455000
     12 C8           2.5930    -0.1010     6.1200 c3         1 0HY      -0.126400
     13 N4           4.1030     0.0040     2.3430 na         1 0HY      -0.390100
     14 C9           3.2830    -0.0020    -1.1290 cc         1 0HY       0.543800
     15 C10          0.7440     1.3280     5.2360 c3         1 0HY      -0.075100
     16 N5           1.9220    -0.0010    -1.1560 ns         1 0HY      -0.457400
     17 O2           0.7370    -0.2040     7.5690 o          1 0HY      -0.544000
     18 O3           2.6990    -0.3340     8.5750 os         1 0HY      -0.425900
     19 C11          1.5130     0.0200     5.0440 c3         1 0HY      -0.077000
     20 O4           0.1260     0.0080     2.6040 o          1 0HY      -0.454100
     21 H1           3.7050     0.7990    -2.8510 hn         1 0HY       0.485133
     22 H2           3.7240    -0.8350    -2.8320 hn         1 0HY       0.485133
     23 H3           2.7260    -0.5950    10.6400 h1         1 0HY       0.055367
     24 H4           1.4500     0.4700    10.0330 h1         1 0HY       0.055367
     25 H5           1.3200    -1.2810     9.8140 h1         1 0HY       0.055367
     26 H6           3.2250     0.7790     6.0970 hc         1 0HY       0.081700
     27 H7           3.1940    -0.9820     5.9310 hc         1 0HY       0.081700
     28 H8           1.1350     1.8530     6.1000 hc         1 0HY       0.054367
     29 H9          -0.3060     1.1110     5.3910 hc         1 0HY       0.054367
     30 H10          0.8590     1.9480     4.3550 hc         1 0HY       0.054367
     31 H11          1.4410    -0.0020    -2.0340 hn         1 0HY       0.349500
     32 H12          0.8290    -0.8160     5.1230 hc         1 0HY       0.110700
     33 H14          5.1030     0.0030     2.3050 hn         1 0HY       0.507800
     34 H13          4.9450     0.0050    -2.1410 hn         1 0HY       0.485133
@<TRIPOS>BOND
     1     2    14 1   
     2    16    14 1   
     3    16     4 1   
     4    14     5 2   
     5     1     4 2   
     6     4     3 1   
     7     5    10 1   
     8     3    10 2   
     9     3    11 1   
    10    10    13 1   
    11    11    20 2   
    12    11     8 1   
    13    13     7 1   
    14     8     7 2   
    15     8    19 1   
    16    19    15 1   
    17    19    12 1   
    18    12     6 1   
    19     6    18 1   
    20     6    17 2   
    21    18     9 1   
    22     2    21 1   
    23     2    22 1   
    24     9    23 1   
    25     9    24 1   
    26     9    25 1   
    27    12    26 1   
    28    12    27 1   
    29    15    28 1   
    30    15    29 1   
    31    15    30 1   
    32    16    31 1   
    33    19    32 1   
    34    13    33 1   
    35    34     2 1   
@<TRIPOS>SUBSTRUCTURE
     1 0HY         1 TEMP              0 ****  ****    0 ROOT
