@<TRIPOS>MOLECULE
0HY
   34    35     1     0     0
SMALL
bcc


@<TRIPOS>ATOM
      1 O1           0.0000     0.0000     0.0000 o          1 0HY      -0.532500
      2 N1           3.9600    -0.0090    -2.3180 nz         1 0HY       0.193400
      3 C1           1.9760     0.0000     1.2500 cc         1 0HY      -0.352400
      4 C2           1.2180     0.0000     0.0000 c          1 0HY       0.618700
      5 N2           3.9760    -0.0080    -0.0110 nd         1 0HY      -0.464300
      6 C3           1.9420    -0.2160     7.4740 c          1 0HY       0.692100
      7 N3           3.4540     0.0110     3.5820 nc         1 0HY      -0.484400
      8 C4           2.1580     0.0130     3.6810 cd         1 0HY       0.383300
      9 C5           2.0050    -0.4420     9.8460 c3         1 0HY       0.270700
     10 C6           3.3820    -0.0010     1.1830 cd         1 0HY       0.168600
     11 C7           1.3440     0.0060     2.5150 c          1 0HY       0.486000
     12 C8           2.5930    -0.1010     6.1200 c3         1 0HY      -0.073400
     13 N4           4.1030     0.0040     2.3430 na         1 0HY       0.077900
     14 C9           3.2830    -0.0020    -1.1290 cc         1 0HY       0.080800
     15 C10          0.7440     1.3280     5.2360 c3         1 0HY       0.014900
     16 N5           1.9220    -0.0010    -1.1560 ns         1 0HY       0.015600
     17 O2           0.7370    -0.2040     7.5690 o          1 0HY      -0.581000
     18 O3           2.6990    -0.3340     8.5750 os         1 0HY      -0.413900
     19 C11          1.5130     0.0200     5.0440 c3         1 0HY      -0.061000
     20 O4           0.1260     0.0080     2.6040 o          1 0HY      -0.477100
     21 H1           3.7050     0.7990    -2.8510 hn         1 0HY       0.227467
     22 H2           3.7240    -0.8350    -2.8320 hn         1 0HY       0.227467
     23 H3           2.7260    -0.5950    10.6400 h1         1 0HY       0.006033
     24 H4           1.4500     0.4700    10.0330 h1         1 0HY       0.006033
     25 H5           1.3200    -1.2810     9.8140 h1         1 0HY       0.006033
     26 H6           3.2250     0.7790     6.0970 hc         1 0HY       0.045200
     27 H7           3.1940    -0.9820     5.9310 hc         1 0HY       0.045200
     28 H8           1.1350     1.8530     6.1000 hc         1 0HY       0.018700
     29 H9          -0.3060     1.1110     5.3910 hc         1 0HY       0.018700
     30 H10          0.8590     1.9480     4.3550 hc         1 0HY       0.018700
     31 H11          1.4410    -0.0020    -2.0340 hn         1 0HY       0.190500
     32 H12          0.8290    -0.8160     5.1230 hc         1 0HY       0.075700
     33 H14          5.1030     0.0030     2.3050 hn         1 0HY       0.324800
     34 H13          4.9450     0.0050    -2.1410 hn         1 0HY       0.227467
@<TRIPOS>BOND
     1     1     4 2   
     2     2    14 1   
     3     2    21 1   
     4     2    22 1   
     5     2    34 1   
     6     3     4 1   
     7     3    10 2   
     8     3    11 1   
     9     4    16 1   
    10     5    10 1   
    11     5    14 2   
    12     6    12 1   
    13     6    17 2   
    14     6    18 1   
    15     7     8 2   
    16     7    13 1   
    17     8    11 1   
    18     8    19 1   
    19     9    18 1   
    20     9    23 1   
    21     9    24 1   
    22     9    25 1   
    23    10    13 1   
    24    11    20 2   
    25    12    19 1   
    26    12    26 1   
    27    12    27 1   
    28    13    33 1   
    29    14    16 1   
    30    15    19 1   
    31    15    28 1   
    32    15    29 1   
    33    15    30 1   
    34    16    31 1   
    35    19    32 1   
@<TRIPOS>SUBSTRUCTURE
     1 0HY         1 TEMP              0 ****  ****    0 ROOT
