@<TRIPOS>MOLECULE
0IN
   30    32     1     0     0
SMALL
bcc


@<TRIPOS>ATOM
      1 CAE         -0.1760    -0.1190     0.1240 ca         1 0IN      -0.114300
      2 CAF         -1.0490    -0.1400    -1.0850 c3         1 0IN       0.021200
      3 CAG          1.2020     0.0400     0.0140 ca         1 0IN       0.096800
      4 CAH          2.0440     0.0330     1.1840 ca         1 0IN       0.335600
      5 CAI         -0.7550    -0.2810     1.4040 ca         1 0IN      -0.084000
      6 CAJ         -1.5990     1.2020    -1.4180 ca         1 0IN      -0.190600
      7 NAK          3.4130     0.1830     1.0580 nb         1 0IN      -0.676000
      8 NAL         -1.1920     3.4230    -2.3220 nb         1 0IN      -0.664000
      9 CAM          1.4190    -0.1320     2.4570 ca         1 0IN      -0.113300
     10 CAN          0.0150    -0.2860     2.5410 ca         1 0IN      -0.149000
     11 OAO          1.7070     0.2020    -1.2530 oh         1 0IN      -0.502100
     12 CAP         -0.7640     2.1960    -1.9780 ca         1 0IN       0.404200
     13 CAQ          4.1420     0.1740     2.1570 ca         1 0IN       0.415200
     14 CAR         -2.9460     1.5180    -1.2130 ca         1 0IN      -0.094000
     15 CAS         -2.4950     3.7050    -2.1150 ca         1 0IN       0.389200
     16 CAT          2.2510    -0.1340     3.6160 ca         1 0IN      -0.082000
     17 CAU         -3.4070     2.7880    -1.5650 ca         1 0IN      -0.248300
     18 CAV          3.6060     0.0180     3.4760 ca         1 0IN      -0.241300
     19 HAF         -1.8930    -0.8640    -0.9160 hc         1 0IN       0.064200
     20 HAFA        -0.4530    -0.5150    -1.9640 hc         1 0IN       0.064200
     21 HAI         -1.8480    -0.4020     1.4720 ha         1 0IN       0.137000
     22 HAN         -0.4460    -0.4110     3.5330 ha         1 0IN       0.137000
     23 HOAO         2.6740     0.2620    -1.2080 ho         1 0IN       0.448000
     24 HAP          0.3090     1.9800    -2.1500 h4         1 0IN       0.037100
     25 HAQ          5.2330     0.2970     2.0210 h4         1 0IN       0.025100
     26 HAR         -3.6340     0.7760    -0.7810 ha         1 0IN       0.134000
     27 HAS         -2.8180     4.7200    -2.4080 h4         1 0IN       0.020100
     28 HAT          1.7830    -0.2580     4.6040 ha         1 0IN       0.142000
     29 HAU         -4.4580     3.0690    -1.4180 ha         1 0IN       0.140000
     30 HAV          4.2850     0.0240     4.3380 ha         1 0IN       0.147000
@<TRIPOS>BOND
     1     1     2 1   
     2     1     3 ar  
     3     1     5 ar  
     4     2     6 1   
     5     2    19 1   
     6     2    20 1   
     7     3     4 ar  
     8     3    11 1   
     9     4     7 ar  
    10     4     9 ar  
    11     5    10 ar  
    12     5    21 1   
    13     6    12 ar  
    14     6    14 ar  
    15     7    13 ar  
    16     8    12 ar  
    17     8    15 ar  
    18     9    10 ar  
    19     9    16 ar  
    20    10    22 1   
    21    11    23 1   
    22    12    24 1   
    23    13    18 ar  
    24    13    25 1   
    25    14    17 ar  
    26    14    26 1   
    27    15    17 ar  
    28    15    27 1   
    29    16    18 ar  
    30    16    28 1   
    31    17    29 1   
    32    18    30 1   
@<TRIPOS>SUBSTRUCTURE
     1 0IN         1 TEMP              0 ****  ****    0 ROOT
