@<TRIPOS>MOLECULE
0IN
   30    32     1     0     0
SMALL
bcc


@<TRIPOS>ATOM
      1 CAE          0.0000     0.0000     0.0000 ca         1 0IN      -0.122300
      2 CAF         -0.7420    -0.0000    -1.3110 c3         1 0IN       0.104200
      3 CAG          1.3650     0.0000     0.0000 ca         1 0IN       0.093800
      4 CAH          2.0630     0.0000     1.2260 ca         1 0IN       0.332600
      5 CAI         -0.7170     0.0070     1.1940 ca         1 0IN      -0.068000
      6 CAJ         -0.8830    -1.4160    -1.8090 ca         1 0IN      -0.207600
      7 NAK          3.3990     0.0000     1.2590 nb         1 0IN      -0.562000
      8 NAL         -2.1100    -3.4160    -1.8870 nb         1 0IN      -0.585000
      9 CAM          1.3270     0.0010     2.4360 ca         1 0IN      -0.131300
     10 CAN         -0.0760     0.0070     2.3960 ca         1 0IN      -0.101000
     11 OAO          2.0480    -0.0020    -1.1750 oh         1 0IN      -0.485100
     12 CAP         -1.9810    -2.1760    -1.4550 ca         1 0IN       0.404200
     13 CAQ          4.0520     0.0010     2.3960 ca         1 0IN       0.407200
     14 CAR          0.0860    -1.9700    -2.6320 ca         1 0IN      -0.055000
     15 CAS         -1.2060    -3.9770    -2.6660 ca         1 0IN       0.399200
     16 CAT          2.0250     0.0010     3.6580 ca         1 0IN      -0.056000
     17 CAU         -0.0840    -3.2760    -3.0660 ca         1 0IN      -0.221300
     18 CAV          3.3900     0.0020     3.6220 ca         1 0IN      -0.218300
     19 HAF         -0.1920     0.5850    -2.0370 hc         1 0IN       0.024200
     20 HAFA        -1.7260     0.4320    -1.1690 hc         1 0IN       0.024200
     21 HAI         -1.8000     0.0130     1.1660 ha         1 0IN       0.108000
     22 HAN         -0.6470     0.0130     3.3170 ha         1 0IN       0.110000
     23 HOAO         2.5000     0.8200    -1.2770 ho         1 0IN       0.410000
     24 HAP         -2.7440    -1.7490    -0.8160 h4         1 0IN      -0.021900
     25 HAQ          5.1350     0.0020     2.3820 h4         1 0IN      -0.021900
     26 HAR          0.9550    -1.3960    -2.9290 ha         1 0IN       0.124000
     27 HAS         -1.3470    -4.9980    -3.0000 h4         1 0IN      -0.021900
     28 HAT          1.4940     0.0020     4.6020 ha         1 0IN       0.112000
     29 HAU          0.6540    -3.7420    -3.7080 ha         1 0IN       0.112000
     30 HAV          3.9580     0.0030     4.5450 ha         1 0IN       0.113000
@<TRIPOS>BOND
     1     1     2 1   
     2     1     3 ar  
     3     1     5 ar  
     4     2     6 1   
     5     2    19 1   
     6     2    20 1   
     7     3     4 ar  
     8     3    11 1   
     9     4     7 ar  
    10     4     9 ar  
    11     5    10 ar  
    12     5    21 1   
    13     6    12 ar  
    14     6    14 ar  
    15     7    13 ar  
    16     8    12 ar  
    17     8    15 ar  
    18     9    10 ar  
    19     9    16 ar  
    20    10    22 1   
    21    11    23 1   
    22    12    24 1   
    23    13    18 ar  
    24    13    25 1   
    25    14    17 ar  
    26    14    26 1   
    27    15    17 ar  
    28    15    27 1   
    29    16    18 ar  
    30    16    28 1   
    31    17    29 1   
    32    18    30 1   
@<TRIPOS>SUBSTRUCTURE
     1 0IN         1 TEMP              0 ****  ****    0 ROOT
