@<TRIPOS>MOLECULE
molecule
   30    32     1     0     0
SMALL
bcc


@<TRIPOS>ATOM
      1 CAE          0.0000     0.0000     0.0000 ca         1 0IN      -0.095300
      2 CAF         -0.7420    -0.0000    -1.3110 c3         1 0IN       0.022200
      3 CAG          1.3650     0.0000     0.0000 ca         1 0IN       0.076800
      4 CAH          2.0630     0.0000     1.2260 ca         1 0IN       0.384600
      5 CAI         -0.7170     0.0070     1.1940 ca         1 0IN      -0.105000
      6 CAJ         -0.8830    -1.4160    -1.8090 ca         1 0IN      -0.205600
      7 NAK          3.3990     0.0000     1.2590 nb         1 0IN      -0.676000
      8 NAL         -2.1100    -3.4160    -1.8870 nb         1 0IN      -0.692000
      9 CAM          1.3270     0.0010     2.4360 ca         1 0IN      -0.141300
     10 CAN         -0.0760     0.0070     2.3960 ca         1 0IN      -0.120000
     11 OAO          2.0480    -0.0020    -1.1750 oh         1 0IN      -0.505100
     12 CAP         -1.9810    -2.1760    -1.4550 ca         1 0IN       0.421200
     13 CAQ          4.0520     0.0010     2.3960 ca         1 0IN       0.430200
     14 CAR          0.0860    -1.9700    -2.6320 ca         1 0IN      -0.075000
     15 CAS         -1.2060    -3.9770    -2.6660 ca         1 0IN       0.415200
     16 CAT          2.0250     0.0010     3.6580 ca         1 0IN      -0.079000
     17 CAU         -0.0840    -3.2760    -3.0660 ca         1 0IN      -0.254300
     18 CAV          3.3900     0.0020     3.6220 ca         1 0IN      -0.253300
     19 HAF         -1.7260     0.4320    -1.1690 hc         1 0IN       0.058200
     20 HAFA        -0.1920     0.5850    -2.0370 hc         1 0IN       0.058200
     21 HAI         -1.8000     0.0130     1.1660 ha         1 0IN       0.136000
     22 HAN         -0.6470     0.0130     3.3170 ha         1 0IN       0.137000
     23 HOAO         2.5000     0.8200    -1.2770 ho         1 0IN       0.428000
     24 HAP         -2.7440    -1.7490    -0.8160 h4         1 0IN       0.018100
     25 HAQ          5.1350     0.0020     2.3820 h4         1 0IN       0.024100
     26 HAR          0.9550    -1.3960    -2.9290 ha         1 0IN       0.153000
     27 HAS         -1.3470    -4.9980    -3.0000 h4         1 0IN       0.021100
     28 HAT          1.4940     0.0020     4.6020 ha         1 0IN       0.141000
     29 HAU          0.6540    -3.7420    -3.7080 ha         1 0IN       0.138000
     30 HAV          3.9580     0.0030     4.5450 ha         1 0IN       0.139000
@<TRIPOS>BOND
     1     1     2 1   
     2     1     3 ar  
     3     1     5 ar  
     4     2     6 1   
     5     3     4 ar  
     6     3    11 1   
     7     4     7 ar  
     8     4     9 ar  
     9     5    10 ar  
    10     6    12 ar  
    11     6    14 ar  
    12     7    13 ar  
    13     8    12 ar  
    14     8    15 ar  
    15     9    10 ar  
    16     9    16 ar  
    17    13    18 ar  
    18    14    17 ar  
    19    15    17 ar  
    20    16    18 ar  
    21     2    19 1   
    22     2    20 1   
    23     5    21 1   
    24    10    22 1   
    25    11    23 1   
    26    12    24 1   
    27    13    25 1   
    28    14    26 1   
    29    15    27 1   
    30    16    28 1   
    31    17    29 1   
    32    18    30 1   
@<TRIPOS>SUBSTRUCTURE
     1 0IN         1 TEMP              0 ****  ****    0 ROOT
