@<TRIPOS>MOLECULE
0IU
  101   103     1     0     0
SMALL
bcc


@<TRIPOS>ATOM
      1 C1          -0.5510    -1.0110    -0.2130 c3         1 0IU       0.076100
      2 C2           0.5730     1.1770    -0.1030 c3         1 0IU       0.076100
      3 C            1.5840    -0.6440    -1.4330 c          1 0IU       0.532100
      4 O            2.7180    -1.0450    -1.2150 o          1 0IU      -0.386100
      5 N            0.7550    -0.2980    -0.2240 nx         1 0IU      -0.576200
      6 N1           1.8520    -0.5390    -3.9700 nx         1 0IU      -0.618200
      7 C3           3.1040     0.3150    -3.8060 c          1 0IU       0.569100
      8 O1           3.1320     1.0140    -2.8020 o          1 0IU      -0.442100
      9 CA           0.9320    -0.4840    -2.7960 c3         1 0IU       0.044800
     10 CB           2.1360    -1.9800    -4.4720 c3         1 0IU       0.219800
     11 CG2          2.9190    -2.8130    -3.4810 c3         1 0IU      -0.129100
     12 CG           0.8490    -2.5920    -4.9200 ca         1 0IU      -0.223300
     13 CD1          0.2090    -3.6060    -4.1960 ca         1 0IU      -0.114000
     14 CD2          0.3200    -2.1880    -6.1590 ca         1 0IU      -0.114000
     15 CE1         -0.9390    -4.2120    -4.7060 ca         1 0IU      -0.108000
     16 CE2         -0.8290    -2.7910    -6.6610 ca         1 0IU      -0.108000
     17 CZ          -1.4600    -3.8070    -5.9370 ca         1 0IU      -0.050000
     18 C4           5.8820     1.3680    -6.1760 c          1 0IU       0.550100
     19 O2           6.0980     0.3530    -6.8300 o          1 0IU      -0.426100
     20 CA1          5.1620     1.3590    -4.8320 c3         1 0IU      -0.110700
     21 CN           4.1290     0.2260    -4.8970 c3         1 0IU      -0.164400
     22 CB1          6.1730     1.0940    -3.7170 c3         1 0IU      -0.104700
     23 CG1          7.0580     2.2390    -3.3760 cc         1 0IU       0.311600
     24 CD21         8.0290     2.1440    -2.3890 cd         1 0IU      -0.267400
     25 SE2          8.8430     3.5800    -2.2030 ss         1 0IU       0.026700
     26 CE11         7.8840     4.3200    -3.4590 cd         1 0IU       0.659300
     27 ND1          6.9590     3.4770    -3.9990 nc         1 0IU      -0.832000
     28 NZ           8.1330     5.5940    -3.9000 nv         1 0IU      -0.919500
     29 C11          7.1060     3.9410    -8.7380 c3         1 0IU       0.114100
     30 C21          6.1320     2.8640    -8.1850 c3         1 0IU       0.146500
     31 C31          4.7000     3.3000    -8.4960 c3         1 0IU      -0.115400
     32 C1'          3.6190     2.2930    -8.1440 c3         1 0IU      -0.057700
     33 C2'          2.2500     2.9530    -8.2740 c3         1 0IU      -0.089900
     34 C3'          1.1400     1.9790    -7.9410 c3         1 0IU      -0.065400
     35 C4'          1.2140     0.7420    -8.8120 c3         1 0IU      -0.095400
     36 C5'          2.5710     0.0790    -8.7150 c3         1 0IU      -0.065400
     37 C6'          3.6930     1.0500    -9.0200 c3         1 0IU      -0.089900
     38 N2           6.3730     2.6690    -6.7030 ny         1 0IU      -0.637800
     39 O11          6.8560     5.1170    -7.9840 oh         1 0IU      -0.628800
     40 C12          8.6030     3.5610    -8.6260 c3         1 0IU       0.099100
     41 C22          9.3290     3.8530    -9.9330 c3         1 0IU      -0.119400
     42 C32         10.8440     3.8550    -9.7700 c3         1 0IU      -0.066700
     43 C41         11.5060     3.6350   -11.1160 c3         1 0IU      -0.099100
     44 C5          11.3300     5.1510    -9.1560 c3         1 0IU      -0.099100
     45 O12          8.6700     2.1910    -8.2520 oh         1 0IU      -0.661800
     46 H11         -0.3760    -2.1190    -0.2850 hx         1 0IU       0.122033
     47 H12         -1.1900    -0.6590    -1.0650 hx         1 0IU       0.122033
     48 H13         -1.0800    -0.7860     0.7570 hx         1 0IU       0.122033
     49 H21          1.5710     1.6860    -0.2040 hx         1 0IU       0.122033
     50 H22         -0.1360     1.5450    -0.8910 hx         1 0IU       0.122033
     51 H23          0.1400     1.4060     0.9130 hx         1 0IU       0.122033
     52 HA2          0.3880     0.5090    -2.8240 hx         1 0IU       0.152700
     53 HA3          0.1750    -1.3270    -2.9230 hx         1 0IU       0.152700
     54 HB           2.7840    -1.8140    -5.3920 hx         1 0IU       0.110700
     55 HG21         3.8900    -2.3280    -3.2130 hc         1 0IU       0.084700
     56 HG22         2.3520    -3.0100    -2.5410 hc         1 0IU       0.084700
     57 HG23         3.1400    -3.8030    -3.9660 hc         1 0IU       0.084700
     58 HD1          0.6250    -3.9710    -3.2440 ha         1 0IU       0.136000
     59 HD2          0.8310    -1.4180    -6.7600 ha         1 0IU       0.136000
     60 HE1         -1.4250    -5.0290    -4.1450 ha         1 0IU       0.177500
     61 HE2         -1.2330    -2.4800    -7.6400 ha         1 0IU       0.177500
     62 HZ          -2.3620    -4.2990    -6.3460 ha         1 0IU       0.186000
     63 HA           4.6370     2.3380    -4.6460 hc         1 0IU       0.120700
     64 HN2          3.6200     0.2390    -5.9050 hc         1 0IU       0.131200
     65 HN3          4.6670    -0.7640    -4.8000 hc         1 0IU       0.131200
     66 HB1          6.8140     0.2110    -3.9930 hc         1 0IU       0.079700
     67 HB2          5.5960     0.8210    -2.7890 hc         1 0IU       0.079700
     68 HD21         8.2510     1.2500    -1.8040 h4         1 0IU       0.199000
     69 HNZ1         8.6630     6.1830    -3.2970 hn         1 0IU       0.444300
     70 HNZ2         7.4550     6.0440    -4.4720 hn         1 0IU       0.444300
     71 H121         6.8340     4.0980    -9.8210 h1         1 0IU       0.095700
     72 H2           6.3820     1.8800    -8.6900 hx         1 0IU       0.140700
     73 H31          4.4920     4.2810    -7.9860 hc         1 0IU       0.096700
     74 H32          4.6560     3.4970    -9.6040 hc         1 0IU       0.096700
     75 H1'          3.7430     1.9800    -7.0660 hc         1 0IU      -0.021300
     76 H2'1         2.1170     3.3240    -9.3260 hc         1 0IU       0.066950
     77 H2'2         2.1910     3.8430    -7.5950 hc         1 0IU       0.066950
     78 H3'1         0.1480     2.4840    -8.0850 hc         1 0IU       0.027200
     79 H3'2         1.2140     1.6810    -6.8600 hc         1 0IU       0.027200
     80 H4'1         0.4130     0.0160    -8.5130 hc         1 0IU       0.064200
     81 H4'2         1.0160     1.0290    -9.8810 hc         1 0IU       0.064200
     82 H5'1         2.7080    -0.3440    -7.6820 hc         1 0IU       0.027200
     83 H5'2         2.6240    -0.7810    -9.4340 hc         1 0IU       0.027200
     84 H6'1         3.6330     1.3530   -10.0990 hc         1 0IU       0.066950
     85 H6'2         4.6800     0.5350    -8.8670 hc         1 0IU       0.066950
     86 HN22         5.9570     3.4590    -6.1910 hn         1 0IU       0.494800
     87 HO1          7.3120     5.8490    -8.4240 ho         1 0IU       0.452000
     88 H122         9.0650     4.1630    -7.7870 h1         1 0IU       0.070700
     89 H211         9.0330     3.0810   -10.6930 hc         1 0IU       0.067200
     90 H221         9.0010     4.8540   -10.3190 hc         1 0IU       0.067200
     91 H3          11.1370     3.0060    -9.0880 hc         1 0IU       0.038700
     92 H41         11.2120     4.4370   -11.8340 hc         1 0IU       0.048200
     93 H42         12.6170     3.6530   -11.0020 hc         1 0IU       0.048200
     94 H43         11.2100     2.6470   -11.5440 hc         1 0IU       0.048200
     95 H51         12.4380     5.1130    -9.0140 hc         1 0IU       0.048200
     96 H52         11.0940     6.0160    -9.8220 hc         1 0IU       0.048200
     97 H53         10.8540     5.3260    -8.1610 hc         1 0IU       0.048200
     98 HO11         9.4660     1.8050    -8.6430 ho         1 0IU       0.457000
     99 H231         7.4020     2.6970    -6.5550 hn         1 0IU       0.494800
    100 H            1.2990    -0.6140     0.6060 hn         1 0IU       0.492800
    101 H111         1.3170    -0.1080    -4.7490 hn         1 0IU       0.476800
@<TRIPOS>BOND
     1     1     5 1   
     2     1    46 1   
     3     1    47 1   
     4     1    48 1   
     5     2     5 1   
     6     2    49 1   
     7     2    50 1   
     8     2    51 1   
     9     3     4 2   
    10     3     5 1   
    11     3     9 1   
    12     5   100 1   
    13     6     7 1   
    14     6     9 1   
    15     6    10 1   
    16     6   101 1   
    17     7     8 2   
    18     7    21 1   
    19     9    52 1   
    20     9    53 1   
    21    10    11 1   
    22    10    12 1   
    23    10    54 1   
    24    11    55 1   
    25    11    56 1   
    26    11    57 1   
    27    12    13 ar  
    28    12    14 ar  
    29    13    15 ar  
    30    13    58 1   
    31    14    16 ar  
    32    14    59 1   
    33    15    17 ar  
    34    15    60 1   
    35    16    17 ar  
    36    16    61 1   
    37    17    62 1   
    38    18    19 2   
    39    18    20 1   
    40    18    38 1   
    41    20    21 1   
    42    20    22 1   
    43    20    63 1   
    44    21    64 1   
    45    21    65 1   
    46    22    23 1   
    47    22    66 1   
    48    22    67 1   
    49    23    24 2   
    50    23    27 1   
    51    24    25 1   
    52    24    68 1   
    53    25    26 1   
    54    26    27 2   
    55    26    28 1   
    56    28    69 1   
    57    28    70 1   
    58    29    30 1   
    59    29    39 1   
    60    29    40 1   
    61    29    71 1   
    62    30    31 1   
    63    30    38 1   
    64    30    72 1   
    65    31    32 1   
    66    31    73 1   
    67    31    74 1   
    68    32    33 1   
    69    32    37 1   
    70    32    75 1   
    71    33    34 1   
    72    33    76 1   
    73    33    77 1   
    74    34    35 1   
    75    34    78 1   
    76    34    79 1   
    77    35    36 1   
    78    35    80 1   
    79    35    81 1   
    80    36    37 1   
    81    36    82 1   
    82    36    83 1   
    83    37    84 1   
    84    37    85 1   
    85    38    86 1   
    86    38    99 1   
    87    39    87 1   
    88    40    41 1   
    89    40    45 1   
    90    40    88 1   
    91    41    42 1   
    92    41    89 1   
    93    41    90 1   
    94    42    43 1   
    95    42    44 1   
    96    42    91 1   
    97    43    92 1   
    98    43    93 1   
    99    43    94 1   
   100    44    95 1   
   101    44    96 1   
   102    44    97 1   
   103    45    98 1   
@<TRIPOS>SUBSTRUCTURE
     1 0IU         1 TEMP              0 ****  ****    0 ROOT
