@<TRIPOS>MOLECULE
0IU
   98   100     1     0     0
SMALL
bcc


@<TRIPOS>ATOM
      1 C1           0.0000     0.0000     0.0000 c3         1 0IU       0.088300
      2 C2           2.1970     0.0000     1.2690 c3         1 0IU       0.088300
      3 C            2.1400    -0.0000    -1.1660 c          1 0IU       0.558100
      4 O            1.5340     0.0000    -2.2170 o          1 0IU      -0.636100
      5 N            1.4650     0.0000     0.0000 n          1 0IU      -0.161800
      6 N1           4.1350    -0.1210    -2.5410 n          1 0IU      -0.114800
      7 C3           4.4530     0.9850    -3.2440 c          1 0IU       0.589100
      8 O1           4.7510     0.8940    -4.4150 o          1 0IU      -0.636100
      9 CA           3.6470    -0.0000    -1.1660 c3         1 0IU      -0.042000
     10 CB           4.2810    -1.4440    -3.1530 c3         1 0IU       0.098000
     11 CG2          4.6210    -1.2850    -4.6370 c3         1 0IU      -0.046100
     12 CG           5.3870    -2.1990    -2.4630 ca         1 0IU      -0.117300
     13 CD1          5.2680    -3.5610    -2.2530 ca         1 0IU      -0.094000
     14 CD2          6.5220    -1.5310    -2.0440 ca         1 0IU      -0.094000
     15 CE1          6.2840    -4.2530    -1.6200 ca         1 0IU      -0.101500
     16 CE2          7.5370    -2.2240    -1.4100 ca         1 0IU      -0.101500
     17 CZ           7.4160    -3.5840    -1.1960 ca         1 0IU      -0.104000
     18 C4           5.0570     4.7030    -2.9570 c          1 0IU       0.564100
     19 O2           5.2590     4.7220    -1.7620 o          1 0IU      -0.642100
     20 CA1          4.6080     3.4300    -3.6270 c3         1 0IU      -0.115700
     21 CN           4.4360     2.3340    -2.5730 c3         1 0IU      -0.103400
     22 CB1          3.2730     3.6700    -4.3350 c3         1 0IU      -0.039700
     23 CG1          2.9300     2.4690    -5.1780 cc         1 0IU       0.377600
     24 CD21         1.8380     1.7320    -4.9700 cd         1 0IU      -0.152400
     25 SE2          1.8150     0.4380    -6.1660 ss         1 0IU      -0.349300
     26 CE11         3.2820     1.0120    -6.8310 cd         1 0IU       0.562300
     27 ND1          3.6830     2.0630    -6.1840 nc         1 0IU      -0.632000
     28 NZ           3.9420     0.4420    -7.9070 nv         1 0IU      -0.489500
     29 C11          4.6420     7.9690    -2.6770 c3         1 0IU       0.141100
     30 C21          5.7850     7.0270    -3.0620 c3         1 0IU      -0.005300
     31 C31          6.7180     7.7330    -4.0470 c3         1 0IU      -0.040400
     32 C1'          7.8920     6.8130    -4.3870 c3         1 0IU      -0.054700
     33 C2'          8.7590     7.4670    -5.4640 c3         1 0IU      -0.028400
     34 C3'          9.9320     6.5470    -5.8040 c3         1 0IU      -0.022900
     35 C4'         10.7740     6.3080    -4.5480 c3         1 0IU      -0.025400
     36 C5'          9.9070     5.6530    -3.4710 c3         1 0IU      -0.022900
     37 C6'          8.7330     6.5740    -3.1310 c3         1 0IU      -0.028400
     38 N2           5.2350     5.8220    -3.6880 ns         1 0IU      -0.179900
     39 O11          3.9100     8.3320    -3.8500 oh         1 0IU      -0.584800
     40 C12          3.7080     7.2620    -1.6930 c3         1 0IU       0.156100
     41 C22          2.5650     8.2040    -1.3090 c3         1 0IU      -0.069400
     42 C32          1.5640     7.4580    -0.4240 c3         1 0IU      -0.051700
     43 C41          0.4890     8.4310     0.0620 c3         1 0IU       0.001400
     44 C5           0.9100     6.3340    -1.2290 c3         1 0IU       0.001400
     45 O12          4.4390     6.8980    -0.5210 oh         1 0IU      -0.551800
     46 H11         -0.3610     0.9670    -0.3290 h1         1 0IU       0.010867
     47 H12         -0.3610    -0.7690    -0.6730 h1         1 0IU       0.010867
     48 H13         -0.3610    -0.1980     1.0020 h1         1 0IU       0.010867
     49 H21          2.8830     0.8380     1.2910 h1         1 0IU       0.010867
     50 H22          2.7530    -0.9250     1.3650 h1         1 0IU       0.010867
     51 H23          1.4960     0.0860     2.0900 h1         1 0IU       0.010867
     52 HA2          4.0080     0.9250    -0.7340 h1         1 0IU       0.050200
     53 HA3          4.0070    -0.8370    -0.5800 h1         1 0IU       0.050200
     54 HB           3.3520    -1.9920    -3.0530 h1         1 0IU       0.037700
     55 HG21         5.6110    -0.8580    -4.7370 hc         1 0IU       0.033033
     56 HG22         4.5950    -2.2550    -5.1190 hc         1 0IU       0.033033
     57 HG23         3.8960    -0.6290    -5.1060 hc         1 0IU       0.033033
     58 HD1          4.3810    -4.0850    -2.5850 ha         1 0IU       0.109500
     59 HD2          6.6170    -0.4650    -2.2110 ha         1 0IU       0.109500
     60 HE1          6.1900    -5.3190    -1.4540 ha         1 0IU       0.102500
     61 HE2          8.4260    -1.7000    -1.0800 ha         1 0IU       0.102500
     62 HZ           8.2120    -4.1270    -0.7000 ha         1 0IU       0.101000
     63 HA           5.3520     3.1210    -4.3510 hc         1 0IU       0.084700
     64 HN2          3.4910     2.4710    -2.0610 hc         1 0IU       0.047700
     65 HN3          5.2460     2.3910    -1.8570 hc         1 0IU       0.047700
     66 HB1          2.4960     3.8280    -3.5980 hc         1 0IU       0.022200
     67 HB2          3.3530     4.5450    -4.9690 hc         1 0IU       0.022200
     68 HD21         1.0930     1.9000    -4.2010 h4         1 0IU       0.169000
     69 HNZ1         4.7960     0.8440    -8.2400 hn         1 0IU       0.269800
     70 HNZ2         3.5620    -0.3680    -8.3560 hn         1 0IU       0.269800
     71 H121         5.0480     8.8600    -2.2140 h1         1 0IU       0.004700
     72 H2           6.3400     6.7510    -2.1740 h1         1 0IU       0.086700
     73 H31          7.0930     8.6450    -3.5980 hc         1 0IU       0.025200
     74 H32          6.1730     7.9730    -4.9520 hc         1 0IU       0.025200
     75 H1'          7.5190     5.8640    -4.7540 hc         1 0IU       0.035700
     76 H2'1         8.1630     7.6320    -6.3540 hc         1 0IU       0.018200
     77 H2'2         9.1380     8.4120    -5.0960 hc         1 0IU       0.018200
     78 H3'1        10.5460     7.0130    -6.5650 hc         1 0IU       0.013950
     79 H3'2         9.5530     5.5990    -6.1690 hc         1 0IU       0.013950
     80 H4'1        11.6030     5.6540    -4.7900 hc         1 0IU       0.012200
     81 H4'2        11.1500     7.2550    -4.1810 hc         1 0IU       0.012200
     82 H5'1         9.5280     4.7070    -3.8390 hc         1 0IU       0.013950
     83 H5'2        10.5040     5.4860    -2.5820 hc         1 0IU       0.013950
     84 H6'1         8.1190     6.1080    -2.3690 hc         1 0IU       0.018200
     85 H6'2         9.1130     7.5210    -2.7660 hc         1 0IU       0.018200
     86 HN22         5.0170     5.8200    -4.6650 hn         1 0IU       0.188500
     87 HO1          3.8620     9.2720    -3.9120 ho         1 0IU       0.391000
     88 H122         3.3020     6.3710    -2.1560 h1         1 0IU       0.063700
     89 H211         2.9640     9.0530    -0.7670 hc         1 0IU       0.021700
     90 H221         2.0660     8.5500    -2.2060 hc         1 0IU       0.021700
     91 H3           2.0820     7.0360     0.4300 hc         1 0IU       0.036700
     92 H41         -0.0450     8.8340    -0.7900 hc         1 0IU       0.004200
     93 H42          0.9550     9.2400     0.6120 hc         1 0IU       0.004200
     94 H43         -0.2060     7.9090     0.7090 hc         1 0IU       0.004200
     95 H51         -0.0990     6.1720    -0.8680 hc         1 0IU       0.004200
     96 H52          0.8790     6.6110    -2.2760 hc         1 0IU       0.004200
     97 H53          1.4850     5.4240    -1.1120 hc         1 0IU       0.004200
     98 HO11         4.5790     7.6630     0.0130 ho         1 0IU       0.376000
@<TRIPOS>BOND
     1     1     5 1   
     2     1    46 1   
     3     1    47 1   
     4     1    48 1   
     5     2     5 1   
     6     2    49 1   
     7     2    50 1   
     8     2    51 1   
     9     3     4 2   
    10     3     5 1   
    11     3     9 1   
    12     6     7 1   
    13     6     9 1   
    14     6    10 1   
    15     7     8 2   
    16     7    21 1   
    17     9    52 1   
    18     9    53 1   
    19    10    11 1   
    20    10    12 1   
    21    10    54 1   
    22    11    55 1   
    23    11    56 1   
    24    11    57 1   
    25    12    13 ar  
    26    12    14 ar  
    27    13    15 ar  
    28    13    58 1   
    29    14    16 ar  
    30    14    59 1   
    31    15    17 ar  
    32    15    60 1   
    33    16    17 ar  
    34    16    61 1   
    35    17    62 1   
    36    18    19 2   
    37    18    20 1   
    38    18    38 1   
    39    20    21 1   
    40    20    22 1   
    41    20    63 1   
    42    21    64 1   
    43    21    65 1   
    44    22    23 1   
    45    22    66 1   
    46    22    67 1   
    47    23    24 2   
    48    23    27 1   
    49    24    25 1   
    50    24    68 1   
    51    25    26 1   
    52    26    27 2   
    53    26    28 1   
    54    28    69 1   
    55    28    70 1   
    56    29    30 1   
    57    29    39 1   
    58    29    40 1   
    59    29    71 1   
    60    30    31 1   
    61    30    38 1   
    62    30    72 1   
    63    31    32 1   
    64    31    73 1   
    65    31    74 1   
    66    32    33 1   
    67    32    37 1   
    68    32    75 1   
    69    33    34 1   
    70    33    76 1   
    71    33    77 1   
    72    34    35 1   
    73    34    78 1   
    74    34    79 1   
    75    35    36 1   
    76    35    80 1   
    77    35    81 1   
    78    36    37 1   
    79    36    82 1   
    80    36    83 1   
    81    37    84 1   
    82    37    85 1   
    83    38    86 1   
    84    39    87 1   
    85    40    41 1   
    86    40    45 1   
    87    40    88 1   
    88    41    42 1   
    89    41    89 1   
    90    41    90 1   
    91    42    43 1   
    92    42    44 1   
    93    42    91 1   
    94    43    92 1   
    95    43    93 1   
    96    43    94 1   
    97    44    95 1   
    98    44    96 1   
    99    44    97 1   
   100    45    98 1   
@<TRIPOS>SUBSTRUCTURE
     1 0IU         1 TEMP              0 ****  ****    0 ROOT
