@<TRIPOS>MOLECULE
0J0
   57    61     1     0     0
SMALL
bcc


@<TRIPOS>ATOM
      1 C13          0.5310     0.9150     1.1310 cc         1 0J0      -0.179600
      2 C15         -1.6830    -0.1000     1.7860 c3         1 0J0       0.075000
      3 C17         -3.8580    -0.8630     0.6970 c3         1 0J0       0.151000
      4 C20         -3.6670    -1.1240     3.0070 c3         1 0J0       0.151000
      5 C21         -2.1640    -0.8480     3.0480 c3         1 0J0      -0.131400
      6 C28         -0.7200     1.7510    -2.3620 c          1 0J0       0.709700
      7 O29         -1.9020     1.3930    -2.1340 o          1 0J0      -0.703500
      8 N02         -0.4630     2.8770    -3.1570 n          1 0J0      -0.334000
      9 C01         -1.5540     3.5470    -3.8210 c3         1 0J0       0.061300
     10 C27          0.4190     1.0440    -1.7800 cc         1 0J0      -0.309200
     11 C09          1.6840     1.5260    -1.9080 cd         1 0J0       0.218900
     12 C08          1.9460     2.6990    -2.7110 ca         1 0J0      -0.149800
     13 C07          3.2530     3.1860    -2.9000 ca         1 0J0      -0.057000
     14 C06          3.4860     4.2910    -3.6980 ca         1 0J0      -0.157000
     15 C05          2.4090     4.9300    -4.3290 ca         1 0J0      -0.065000
     16 C04          1.1130     4.4740    -4.1650 ca         1 0J0      -0.180000
     17 C03          0.8460     3.3420    -3.3480 ca         1 0J0       0.097600
     18 O10          2.7760     0.8650    -1.3680 os         1 0J0      -0.328900
     19 C12          1.7470     0.3170     0.7600 cd         1 0J0       0.222600
     20 N26          1.6370    -1.0640     1.0930 nd         1 0J0      -0.298000
     21 N25          0.4930    -1.3020     1.5710 nc         1 0J0      -0.185800
     22 N14         -0.2330    -0.1460     1.6520 na         1 0J0       0.022400
     23 C19         -4.4380     0.2050     2.8140 c3         1 0J0      -0.106400
     24 C18         -4.5650     0.3740     1.2980 c3         1 0J0      -0.106400
     25 N22         -4.0230    -1.9510     1.7680 n4         1 0J0      -0.620800
     26 C23         -3.1560    -3.1350     1.5630 c3         1 0J0       0.090600
     27 C16         -2.3780    -0.5630     0.4830 c3         1 0J0      -0.131400
     28 H13          0.1780     1.9450     1.0900 h4         1 0J0       0.203000
     29 H15         -1.9450     0.9950     1.9300 h1         1 0J0       0.079700
     30 H17         -4.3350    -1.2120    -0.2590 hx         1 0J0       0.115200
     31 H20         -3.9930    -1.6810     3.9260 hx         1 0J0       0.115200
     32 H21         -1.5980    -1.8030     3.2130 hc         1 0J0       0.107450
     33 H21A        -1.9620    -0.2040     3.9470 hc         1 0J0       0.107450
     34 H24         -5.6970    -2.9310     0.8710 hx         1 0J0       0.101033
     35 H24A        -6.1270    -1.5450     1.9860 hx         1 0J0       0.101033
     36 H24B        -5.5490    -3.1340     2.6880 hx         1 0J0       0.101033
     37 H01         -1.4010     3.5220    -4.9330 h1         1 0J0       0.063033
     38 H01A        -2.5220     3.0320    -3.5750 h1         1 0J0       0.063033
     39 H01B        -1.6120     4.6150    -3.4790 h1         1 0J0       0.063033
     40 H07          4.0850     2.6580    -2.4070 ha         1 0J0       0.155000
     41 H06          4.5100     4.6670    -3.8450 ha         1 0J0       0.151000
     42 H05          2.5990     5.8080    -4.9680 ha         1 0J0       0.148000
     43 H04          0.2940     4.9980    -4.6800 ha         1 0J0       0.148000
     44 H19         -5.4400     0.1580     3.3070 hc         1 0J0       0.090200
     45 H19A        -3.8720     1.0500     3.2800 hc         1 0J0       0.090200
     46 H18         -4.0690     1.3100     0.9380 hc         1 0J0       0.090200
     47 H18A        -5.6360     0.4160     0.9790 hc         1 0J0       0.090200
     48 H23         -3.4430    -3.6300     0.5970 hx         1 0J0       0.101033
     49 H23A        -3.3090    -3.8490     2.4170 hx         1 0J0       0.101033
     50 H23B        -2.0700    -2.8520     1.5170 hx         1 0J0       0.101033
     51 H16         -2.3040     0.2600    -0.2910 hc         1 0J0       0.107450
     52 H16A        -1.8630    -1.4510     0.0300 hc         1 0J0       0.107450
     53 C24         -5.4350    -2.4150     1.8330 c3         1 0J0       0.090600
     54 C11          2.8970     0.9300     0.0630 c3         1 0J0       0.118100
     55 H27          0.1840     0.1060    -1.2600 ha         1 0J0       0.160000
     56 H11          3.0090     2.0020     0.3770 h1         1 0J0       0.086700
     57 H11A         3.8520     0.3610     0.2460 h1         1 0J0       0.086700
@<TRIPOS>BOND
     1     1    19 2   
     2     1    22 1   
     3     1    28 1   
     4     2     5 1   
     5     2    22 1   
     6     2    27 1   
     7     2    29 1   
     8     3    24 1   
     9     3    25 1   
    10     3    27 1   
    11     3    30 1   
    12     4     5 1   
    13     4    23 1   
    14     4    25 1   
    15     4    31 1   
    16     5    32 1   
    17     5    33 1   
    18     6     7 2   
    19     6     8 1   
    20     6    10 1   
    21     8     9 1   
    22     8    17 1   
    23     9    37 1   
    24     9    38 1   
    25     9    39 1   
    26    10    11 2   
    27    10    55 1   
    28    11    12 1   
    29    11    18 1   
    30    12    13 ar  
    31    12    17 ar  
    32    13    14 ar  
    33    13    40 1   
    34    14    15 ar  
    35    14    41 1   
    36    15    16 ar  
    37    15    42 1   
    38    16    17 ar  
    39    16    43 1   
    40    18    54 1   
    41    19    20 1   
    42    19    54 1   
    43    20    21 2   
    44    21    22 1   
    45    23    24 1   
    46    23    44 1   
    47    23    45 1   
    48    24    46 1   
    49    24    47 1   
    50    25    26 1   
    51    25    53 1   
    52    26    48 1   
    53    26    49 1   
    54    26    50 1   
    55    27    51 1   
    56    27    52 1   
    57    34    53 1   
    58    35    53 1   
    59    36    53 1   
    60    54    56 1   
    61    54    57 1   
@<TRIPOS>SUBSTRUCTURE
     1 0J0         1 TEMP              0 ****  ****    0 ROOT
