@<TRIPOS>MOLECULE
molecule
   57    61     1     0     0
SMALL
bcc


@<TRIPOS>ATOM
      1 C13          0.0000     0.0000     0.0000 cc         1 0J0      -0.288600
      2 C15         -1.7560     0.0020     1.7930 c3         1 0J0       0.067000
      3 C17         -4.0990     0.7070     1.2970 c3         1 0J0       0.124500
      4 C20         -3.7700    -1.4100     2.2230 c3         1 0J0       0.124500
      5 C21         -2.2790    -1.4360     1.8480 c3         1 0J0      -0.123400
      6 C28          4.1580    -0.0030    -4.8460 c          1 0J0       0.713700
      7 O29          5.3780    -0.0030    -4.8580 o          1 0J0      -0.635500
      8 N02          3.4940    -0.0090    -6.0150 n          1 0J0      -0.341000
      9 C01          4.2480    -0.0170    -7.2720 c3         1 0J0       0.077300
     10 C27          3.4870    -0.0020    -3.6140 cc         1 0J0      -0.345200
     11 C09          2.1210    -0.0020    -3.5760 cd         1 0J0       0.209900
     12 C08          1.3870    -0.0020    -4.8490 ca         1 0J0      -0.128800
     13 C07         -0.0090    -0.0010    -4.8780 ca         1 0J0      -0.066000
     14 C06         -0.6640    -0.0020    -6.0890 ca         1 0J0      -0.175000
     15 C05          0.0540    -0.0020    -7.2770 ca         1 0J0      -0.066000
     16 C04          1.4330    -0.0040    -7.2640 ca         1 0J0      -0.177000
     17 C03          2.1150    -0.0090    -6.0520 ca         1 0J0       0.116600
     18 O10          1.4600    -0.0010    -2.3960 os         1 0J0      -0.341900
     19 C12          1.3540     0.0000     0.0000 cd         1 0J0       0.303600
     20 N26          1.7330     0.0000     1.2830 nd         1 0J0      -0.324000
     21 N25          0.6840     0.0010     2.0280 nc         1 0J0      -0.181800
     22 N14         -0.3770     0.0010     1.3000 na         1 0J0       0.102400
     23 C19         -3.9340    -0.4690     3.4390 c3         1 0J0      -0.103400
     24 C18         -4.1520     0.9320     2.8270 c3         1 0J0      -0.103400
     25 N22         -4.4900    -0.7160     1.1230 n4         1 0J0      -0.584800
     26 C23         -4.0440    -1.2180    -0.1840 c3         1 0J0       0.088600
     27 C16         -2.6320     0.8360     0.8540 c3         1 0J0      -0.123400
     28 H13         -0.6370    -0.2240    -0.8470 h4         1 0J0       0.184000
     29 H15         -1.7820     0.4320     2.7870 h1         1 0J0       0.109700
     30 H17         -4.7540     1.3820     0.7600 hx         1 0J0       0.125200
     31 H20         -4.1650    -2.4000     2.4130 hx         1 0J0       0.125200
     32 H21         -2.1570    -1.9040     0.8780 hc         1 0J0       0.096700
     33 H21A        -1.7270    -1.9960     2.5930 hc         1 0J0       0.096700
     34 H24         -6.2440    -0.5330     2.2550 hx         1 0J0       0.100700
     35 H24A        -6.4500    -0.2930     0.5150 hx         1 0J0       0.100700
     36 H24B        -6.2040    -1.9220     1.1600 hx         1 0J0       0.100700
     37 H01          5.3100    -0.0100    -7.0560 h1         1 0J0       0.062033
     38 H01A         4.0000    -0.9080    -7.8360 h1         1 0J0       0.062033
     39 H01B         3.9920     0.8610    -7.8520 h1         1 0J0       0.062033
     40 H07         -0.5730    -0.0010    -3.9530 ha         1 0J0       0.126000
     41 H06         -1.7470    -0.0010    -6.1150 ha         1 0J0       0.130000
     42 H05         -0.4730    -0.0030    -8.2230 ha         1 0J0       0.142000
     43 H04          1.9840    -0.0040    -8.1970 ha         1 0J0       0.151000
     44 H19         -4.7950    -0.7610     4.0280 hc         1 0J0       0.093700
     45 H19A        -3.0380    -0.4790     4.0470 hc         1 0J0       0.093700
     46 H18         -3.3620     1.6050     3.1360 hc         1 0J0       0.093700
     47 H18A        -5.1190     1.3240     3.1170 hc         1 0J0       0.093700
     48 H23         -3.2150    -1.9010    -0.0450 hx         1 0J0       0.100700
     49 H23A        -4.8620    -1.7360    -0.6700 hx         1 0J0       0.100700
     50 H23B        -3.7270    -0.3860    -0.8010 hx         1 0J0       0.100700
     51 H16         -2.3290     1.8750     0.9020 hc         1 0J0       0.096700
     52 H16A        -2.5260     0.4730    -0.1600 hc         1 0J0       0.096700
     53 C24         -5.9420    -0.8770     1.2730 c3         1 0J0       0.088600
     54 C11          2.2550    -0.0010    -1.2080 c3         1 0J0       0.124100
     55 H27          4.0530    -0.0080    -2.6900 ha         1 0J0       0.169000
     56 H11          2.8800    -0.8860    -1.1910 h1         1 0J0       0.077200
     57 H11A         2.8810     0.8830    -1.1920 h1         1 0J0       0.077200
@<TRIPOS>BOND
     1     1    19 2   
     2     1    22 1   
     3     2     5 1   
     4     2    22 1   
     5     2    27 1   
     6     3    24 1   
     7     3    25 1   
     8     3    27 1   
     9     4     5 1   
    10     4    23 1   
    11     4    25 1   
    12    53    25 1   
    13     6     7 2   
    14     6     8 1   
    15     6    10 1   
    16     8     9 1   
    17     8    17 1   
    18    10    11 2   
    19    11    12 1   
    20    11    18 1   
    21    12    13 ar  
    22    12    17 ar  
    23    13    14 ar  
    24    14    15 ar  
    25    15    16 ar  
    26    16    17 ar  
    27    18    54 1   
    28    54    19 1   
    29    19    20 1   
    30    20    21 2   
    31    21    22 1   
    32    23    24 1   
    33    25    26 1   
    34     1    28 1   
    35     2    29 1   
    36     3    30 1   
    37     4    31 1   
    38     5    32 1   
    39     5    33 1   
    40    53    34 1   
    41    53    35 1   
    42    53    36 1   
    43     9    37 1   
    44     9    38 1   
    45     9    39 1   
    46    10    55 1   
    47    13    40 1   
    48    14    41 1   
    49    15    42 1   
    50    16    43 1   
    51    54    56 1   
    52    54    57 1   
    53    23    44 1   
    54    23    45 1   
    55    24    46 1   
    56    24    47 1   
    57    26    48 1   
    58    26    49 1   
    59    26    50 1   
    60    27    51 1   
    61    27    52 1   
@<TRIPOS>SUBSTRUCTURE
     1 0J0         1 TEMP              0 ****  ****    0 ROOT
