@<TRIPOS>MOLECULE
molecule
   30    31     1     0     0
SMALL
bcc


@<TRIPOS>ATOM
      1 C1           0.0000     0.0000     0.0000 c3         1 0J2      -0.186400
      2 C2           2.0400     1.2480    -0.7230 c3         1 0J2      -0.057100
      3 C3          -0.5030    -0.1250    -1.4150 c          1 0J2       0.888600
      4 O1          -1.8230    -0.1460    -1.6590 o          1 0J2      -0.829800
      5 O2           0.2810    -0.2050    -2.3300 o          1 0J2      -0.829800
      6 N1           1.1870     0.1000     2.4030 nc         1 0J2      -0.355400
      7 N2           1.6020     0.1050     3.7400 na         1 0J2      -0.383100
      8 C4           1.5290     0.0000     0.0000 c3         1 0J2      -0.080000
      9 C5           5.2860    -0.2090     3.3710 c          1 0J2       0.711700
     10 C6           3.8700    -0.1030     3.0180 cd         1 0J2      -0.355400
     11 N4           5.6030    -0.1950     4.6870 ns         1 0J2      -0.481400
     12 C7           2.9260     0.0060     4.0550 cc         1 0J2       0.379600
     13 C8           2.0320     0.0000     1.4210 cd         1 0J2       0.381300
     14 C9           3.4270    -0.1060     1.6750 c          1 0J2       0.449000
     15 N5           3.3470     0.0100     5.3220 nc         1 0J2      -0.635300
     16 O4           4.2240    -0.2000     0.7550 o          1 0J2      -0.456100
     17 C10          4.6230    -0.0850     5.6260 cd         1 0J2       0.496800
     18 H1          -0.3610    -0.8360     0.5860 hc         1 0J2       0.040700
     19 H2          -0.3610     0.9260     0.4310 hc         1 0J2       0.040700
     20 H3           2.6420     1.8380    -0.0420 hc         1 0J2       0.044033
     21 H4           2.6410     0.9510    -1.5740 hc         1 0J2       0.044033
     22 H5           1.1970     1.8380    -1.0630 hc         1 0J2       0.044033
     23 H7           1.8900    -0.8850    -0.5100 hc         1 0J2       0.108700
     24 H8           5.8580     0.3470     7.1800 hn         1 0J2       0.511800
     25 H9           5.0080    -0.9430     6.4490 hn         1 0J2       0.511800
     26 H10          6.5600    -0.2650     4.9710 hn         1 0J2       0.339500
     27 H11          0.9220     0.1840     4.4710 hn         1 0J2       0.498800
     28 O3           6.1460    -0.3070     2.5140 o          1 0J2      -0.509500
     29 N3           4.9820    -0.0750     6.9460 nz         1 0J2      -0.842600
     30 H33          4.2510     0.0470     7.6190 hn         1 0J2       0.511800
@<TRIPOS>BOND
     1     5     3 1
     2     3     4 1
     3     3     1 1
     4     1     8 1
     5     8     2 1
     6     8    13 1
     7     6    13 2
     8     6     7 1
     9    13    14 1
    10     7    12 1
    11    14    16 2
    12    14    10 1
    13    12    10 2
    14    12    15 1
    15    10     9 1
    16    15    17 2
    17     9    28 2
    18     9    11 1
    19    17    11 1
    20    17    29 1
    21     1    18 1
    22     1    19 1
    23     2    20 1
    24     2    21 1
    25     2    22 1
    26     8    23 1
    27    29    24 1
    28    29    25 1
    29    11    26 1
    30     7    27 1
    31    30    29 1
@<TRIPOS>SUBSTRUCTURE
     1 0J2         1 TEMP              0 ****  ****    0 ROOT
