@<TRIPOS>MOLECULE
0J2
   30    32     1     0     0
SMALL
bcc


@<TRIPOS>ATOM
      1 C1           0.0000     0.0000     0.0000 c3         1 0J2      -0.166000
      2 C2           2.0400     1.2480    -0.7230 c3         1 0J2      -0.093000
      3 C3          -0.5030    -0.1250    -1.4150 c2         1 0J2       0.390000
      4 O1          -1.8230    -0.1460    -1.6590 o          1 0J2      -0.583500
      5 O2           0.2810    -0.2050    -2.3300 o          1 0J2      -0.583500
      6 N1           1.1870     0.1000     2.4030 n2         1 0J2      -0.113000
      7 N2           1.6020     0.1050     3.7400 na         1 0J2       0.282000
      8 C4           1.5290     0.0000     0.0000 c3         1 0J2      -0.027000
      9 C5           5.2860    -0.2090     3.3710 c2         1 0J2       0.270000
     10 C6           3.8700    -0.1030     3.0180 c2         1 0J2      -0.343000
     11 N4           5.6030    -0.1950     4.6870 ns         1 0J2       0.130000
     12 C7           2.9260     0.0060     4.0550 c2         1 0J2      -0.060000
     13 C8           2.0320     0.0000     1.4210 c2         1 0J2      -0.024000
     14 C9           3.4270    -0.1060     1.6750 c2         1 0J2       0.296000
     15 N5           3.3470     0.0100     5.3220 n2         1 0J2      -0.066000
     16 O4           4.2240    -0.2000     0.7550 o          1 0J2      -0.250000
     17 C10          4.6230    -0.0850     5.6260 c3         1 0J2      -0.347000
     18 H1          -0.3610    -0.8360     0.5860 hc         1 0J2       0.058000
     19 H2          -0.3610     0.9260     0.4310 hc         1 0J2       0.058000
     20 H3           2.6420     1.8380    -0.0420 hc         1 0J2       0.050333
     21 H4           2.6410     0.9510    -1.5740 hc         1 0J2       0.050333
     22 H5           1.1970     1.8380    -1.0630 hc         1 0J2       0.050333
     23 H7           1.8900    -0.8850    -0.5100 hc         1 0J2       0.115000
     24 H8           5.8580     0.3470     7.1800 hn         1 0J2       0.051000
     25 H9           5.0080    -0.9430     6.4490 DU         1 0J2       0.119000
     26 H10          6.5600    -0.2650     4.9710 hn         1 0J2       0.097000
     27 H11          0.9220     0.1840     4.4710 hn         1 0J2       0.112000
     28 O3           6.1460    -0.3070     2.5140 o          1 0J2      -0.277000
     29 N3           4.9820    -0.0750     6.9460 nz         1 0J2       0.754000
     30 H33          4.2510     0.0470     7.6190 hn         1 0J2       0.051000
@<TRIPOS>BOND
     1     1     3 1   
     2     1     8 1   
     3     1    18 1   
     4     1    19 1   
     5     2     8 1   
     6     2    20 1   
     7     2    21 1   
     8     2    22 1   
     9     3     4 1   
    10     3     5 1   
    11     6     7 1   
    12     6    13 1   
    13     7    12 1   
    14     7    27 1   
    15     8    13 1   
    16     8    23 1   
    17     9    10 1   
    18     9    11 1   
    19     9    28 1   
    20    10    12 1   
    21    10    14 1   
    22    11    17 1   
    23    11    26 1   
    24    12    15 1   
    25    13    14 1   
    26    14    16 1   
    27    15    17 1   
    28    17    25 1   
    29    17    29 1   
    30    24    29 1   
    31    25    29 1   
    32    29    30 1   
@<TRIPOS>SUBSTRUCTURE
     1 0J2         1 TEMP              0 ****  ****    0 ROOT
