@<TRIPOS>MOLECULE
0J2
   30    31     1     0     0
SMALL
bcc


@<TRIPOS>ATOM
      1 C1          -0.0510     0.1580     0.4220 c3         1 0J2      -0.121400
      2 C2           2.1290     0.7240    -0.6160 c3         1 0J2      -0.094100
      3 C3          -0.8500    -0.8250     1.2140 c          1 0J2       0.639100
      4 O1          -1.9900    -0.2950     1.7450 oh         1 0J2      -0.612100
      5 O2          -0.6510    -2.0240     1.4290 o          1 0J2      -0.549000
      6 N1           1.6100     0.4680     2.7220 nc         1 0J2      -0.386400
      7 N2           2.2450     0.4920     3.8840 na         1 0J2      -0.400100
      8 C4           1.4250    -0.2010     0.3600 c3         1 0J2      -0.080000
      9 C5           5.3530    -1.5010     3.2870 c          1 0J2       0.744700
     10 C6           4.0800    -0.8420     3.0500 cc         1 0J2      -0.418400
     11 N4           5.8740    -1.4000     4.6130 ns         1 0J2      -0.516400
     12 C7           3.4610    -0.1570     4.1210 cd         1 0J2       0.444600
     13 C8           2.1330    -0.1630     1.6900 cd         1 0J2       0.292300
     14 C9           3.4480    -0.8930     1.7430 c          1 0J2       0.498000
     15 N5           3.9970    -0.0750     5.3990 nd         1 0J2      -0.746300
     16 O4           3.9060    -1.4630     0.7460 o          1 0J2      -0.523100
     17 C10          5.1750    -0.7230     5.6150 cc         1 0J2       0.744800
     18 O3           6.0490    -2.1340     2.4830 o          1 0J2      -0.579500
     19 N3           5.6810    -0.7430     6.9150 nv         1 0J2      -0.919800
     20 H1          -0.4700     0.1570    -0.6230 hc         1 0J2       0.086700
     21 H2          -0.2010     1.1870     0.8440 hc         1 0J2       0.086700
     22 H3           2.0560     1.7860    -0.2810 hc         1 0J2       0.048700
     23 H4           3.2080     0.4390    -0.6930 hc         1 0J2       0.048700
     24 H5           1.6640     0.6340    -1.6270 hc         1 0J2       0.048700
     25 H7           1.5200    -1.2670    -0.0080 hc         1 0J2       0.103700
     26 H8          -2.4720    -0.9840     2.2320 ho         1 0J2       0.442000
     27 H9           5.2340    -0.1650     7.5890 hn         1 0J2       0.443300
     28 H10          6.7230    -1.8830     4.8120 hn         1 0J2       0.336500
     29 H11          1.7500     0.9550     4.6240 hn         1 0J2       0.492800
     30 H33          6.6460    -0.9300     7.0470 hn         1 0J2       0.443300
@<TRIPOS>BOND
     1     1     3 1   
     2     1     8 1   
     3     1    20 1   
     4     1    21 1   
     5     2     8 1   
     6     2    22 1   
     7     2    23 1   
     8     2    24 1   
     9     3     4 1   
    10     3     5 2   
    11     4    26 1   
    12     6     7 1   
    13     6    13 2   
    14     7    12 1   
    15     7    29 1   
    16     8    13 1   
    17     8    25 1   
    18     9    10 1   
    19     9    11 1   
    20     9    18 2   
    21    10    12 2   
    22    10    14 1   
    23    11    17 1   
    24    11    28 1   
    25    12    15 1   
    26    13    14 1   
    27    14    16 2   
    28    15    17 2   
    29    17    19 1   
    30    19    27 1   
    31    19    30 1   
@<TRIPOS>SUBSTRUCTURE
     1 0J2         1 TEMP              0 ****  ****    0 ROOT
