@<TRIPOS>MOLECULE
0J3
   54    57     1     0     0
SMALL
bcc


@<TRIPOS>ATOM
      1 CAQ          0.2980    -0.0220     0.0680 c3         1 0J3       0.175300
      2 CAO          1.8200    -0.1020     0.3080 c3         1 0J3       0.159300
      3 NBD          2.2490     0.0440     1.6850 n3         1 0J3      -0.731600
      4 CAA          2.5470     1.4060     2.0670 c3         1 0J3       0.154100
      5 CAP          1.3710    -0.6310     2.6310 c3         1 0J3       0.159300
      6 CAR          0.2900    -1.5320     2.0000 c3         1 0J3       0.175300
      7 NBE         -0.4730    -0.8580     0.9690 nh         1 0J3      -0.648000
      8 CAX         -1.6010    -1.5000     0.4480 ca         1 0J3       0.056300
      9 CAM         -2.3920    -0.9080    -0.5390 ca         1 0J3      -0.170000
     10 CBB         -3.5810    -1.5390    -0.9880 ca         1 0J3      -0.102300
     11 CAJ         -2.0620    -2.7760     0.9670 ca         1 0J3       0.382200
     12 NAT         -3.1660    -3.3760     0.5820 nb         1 0J3      -0.628000
     13 CBA         -3.9490    -2.7810    -0.3890 ca         1 0J3       0.369600
     14 CAN         -5.1560    -3.4370    -0.7870 ca         1 0J3      -0.122300
     15 CAY         -5.9410    -2.8650    -1.7540 ca         1 0J3      -0.143300
     16 CBF         -7.2290    -3.5460    -2.2090 c3         1 0J3       0.687200
     17 FAE         -7.1280    -4.1760    -3.4270 f          1 0J3      -0.235967
     18 FAF         -7.6980    -4.5210    -1.3640 f          1 0J3      -0.235967
     19 FAD         -8.2950    -2.6920    -2.3640 f          1 0J3      -0.235967
     20 CAL         -5.5860    -1.6500    -2.3780 ca         1 0J3      -0.158000
     21 CAZ         -4.4290    -0.9720    -2.0140 ca         1 0J3       0.139600
     22 NAU         -4.0880     0.2840    -2.5570 nu         1 0J3      -0.717600
     23 CAS         -4.9170     0.8850    -3.5680 c3         1 0J3       0.223100
     24 CAV         -4.8380     0.3130    -4.9580 ca         1 0J3      -0.132300
     25 CAK         -6.0160    -0.0060    -5.6380 ca         1 0J3      -0.061000
     26 CAH         -3.6030     0.1390    -5.5910 ca         1 0J3      -0.087000
     27 CAG         -3.5370    -0.3590    -6.8910 ca         1 0J3      -0.134000
     28 CAI         -4.7020    -0.6800    -7.5850 ca         1 0J3      -0.064000
     29 CAW         -5.9400    -0.4940    -6.9520 ca         1 0J3      -0.169200
     30 NBC         -7.1940    -0.8180    -7.6860 no         1 0J3       0.313200
     31 OAC         -7.1150    -1.2690    -8.7970 o          1 0J3      -0.203500
     32 OAB         -8.2500    -0.6140    -7.1500 o          1 0J3      -0.203500
     33 H1           0.1070    -0.3000    -1.0080 h1         1 0J3       0.047950
     34 H2          -0.0510     1.0400     0.2180 h1         1 0J3       0.047950
     35 H3           2.3080     0.6820    -0.3330 h1         1 0J3       0.055200
     36 H4           2.1880    -1.1110    -0.0360 h1         1 0J3       0.055200
     37 H6           1.6580     2.0930     2.0160 h1         1 0J3       0.035700
     38 H7           2.9370     1.4070     3.1190 h1         1 0J3       0.035700
     39 H8           3.3460     1.8040     1.3880 h1         1 0J3       0.035700
     40 H9           2.0270    -1.2920     3.2670 h1         1 0J3       0.055200
     41 H10          0.8590     0.1060     3.3150 h1         1 0J3       0.055200
     42 H11          0.7810    -2.4650     1.5970 h1         1 0J3       0.047950
     43 H12         -0.4160    -1.8310     2.8250 h1         1 0J3       0.047950
     44 H13         -2.1060     0.0760    -0.9410 ha         1 0J3       0.143000
     45 H14         -1.4780    -3.3140     1.7370 h4         1 0J3       0.028100
     46 H15         -5.4410    -4.3900    -0.3090 ha         1 0J3       0.170000
     47 H16         -6.2560    -1.2650    -3.1640 ha         1 0J3       0.150000
     48 H17         -3.1110     0.3530    -2.7660 hn         1 0J3       0.392800
     49 H18         -5.9870     0.8690    -3.2110 h1         1 0J3       0.074700
     50 H19         -4.5980     1.9700    -3.6310 h1         1 0J3       0.074700
     51 H20         -7.0000     0.1250    -5.1510 ha         1 0J3       0.174000
     52 H21         -2.6720     0.4000    -5.0630 ha         1 0J3       0.137000
     53 H22         -2.5600    -0.4990    -7.3790 ha         1 0J3       0.150000
     54 H23         -4.6540    -1.0730    -8.6150 ha         1 0J3       0.174000
@<TRIPOS>BOND
     1     1     2 1   
     2     1     7 1   
     3     1    33 1   
     4     1    34 1   
     5     2     3 1   
     6     2    35 1   
     7     2    36 1   
     8     3     4 1   
     9     3     5 1   
    10     4    37 1   
    11     4    38 1   
    12     4    39 1   
    13     5     6 1   
    14     5    40 1   
    15     5    41 1   
    16     6     7 1   
    17     6    42 1   
    18     6    43 1   
    19     7     8 1   
    20     8     9 ar  
    21     8    11 ar  
    22     9    10 ar  
    23     9    44 1   
    24    10    13 ar  
    25    10    21 ar  
    26    11    12 ar  
    27    11    45 1   
    28    12    13 ar  
    29    13    14 ar  
    30    14    15 ar  
    31    14    46 1   
    32    15    16 1   
    33    15    20 ar  
    34    16    17 1   
    35    16    18 1   
    36    16    19 1   
    37    20    21 ar  
    38    20    47 1   
    39    21    22 1   
    40    22    23 1   
    41    22    48 1   
    42    23    24 1   
    43    23    49 1   
    44    23    50 1   
    45    24    25 ar  
    46    24    26 ar  
    47    25    29 ar  
    48    25    51 1   
    49    26    27 ar  
    50    26    52 1   
    51    27    28 ar  
    52    27    53 1   
    53    28    29 ar  
    54    28    54 1   
    55    29    30 1   
    56    30    31 1   
    57    30    32 1   
@<TRIPOS>SUBSTRUCTURE
     1 0J3         1 TEMP              0 ****  ****    0 ROOT
