@<TRIPOS>MOLECULE
molecule
   54    57     1     0     0
SMALL
bcc


@<TRIPOS>ATOM
      1 CAQ          0.0000     0.0000     0.0000 c3         1 0J3       0.163300
      2 CAO          1.5310     0.0000     0.0000 c3         1 0J3       0.160800
      3 NBD          2.0180     0.0000     1.3860 n3         1 0J3      -0.733600
      4 CAA          3.4850    -0.0770     1.4290 c3         1 0J3       0.153100
      5 CAP          1.5310     1.1820     2.1110 c3         1 0J3       0.160800
      6 CAR          0.0010     1.1830     2.1120 c3         1 0J3       0.163300
      7 NBE         -0.4860     1.1820     0.7250 nh         1 0J3      -0.597000
      8 CAX         -1.8820     1.2550     0.6860 ca         1 0J3      -0.014700
      9 CAM         -2.5420     2.2970     1.3110 ca         1 0J3      -0.122000
     10 CBB         -3.9450     2.3250     1.2420 ca         1 0J3      -0.158300
     11 CAJ         -2.6190     0.2780     0.0080 ca         1 0J3       0.398200
     12 NAT         -3.9270     0.3190    -0.0490 nb         1 0J3      -0.654000
     13 CBA         -4.6230     1.2980     0.5420 ca         1 0J3       0.424600
     14 CAN         -6.0260     1.3260     0.4730 ca         1 0J3      -0.159300
     15 CAY         -6.7190     2.3330     1.0740 ca         1 0J3      -0.126300
     16 CBF         -8.2240     2.3480     0.9890 c3         1 0J3       0.673200
     17 FAE         -8.7000     1.0360     0.9040 f          1 0J3      -0.223300
     18 FAF         -8.7480     2.9610     2.1320 f          1 0J3      -0.223300
     19 FAD         -8.6200     3.0630    -0.1460 f          1 0J3      -0.223300
     20 CAL         -6.0620     3.3470     1.7640 ca         1 0J3      -0.201000
     21 CAZ         -4.6860     3.3570     1.8560 ca         1 0J3       0.212600
     22 NAU         -4.0350     4.3750     2.5490 nu         1 0J3      -0.819600
     23 CAS         -4.8130     5.4420     3.1830 c3         1 0J3       0.286100
     24 CAV         -3.8770     6.4100     3.8610 ca         1 0J3      -0.123300
     25 CAK         -3.5080     6.2070     5.1770 ca         1 0J3      -0.055000
     26 CAH         -3.3860     7.4980     3.1660 ca         1 0J3      -0.073000
     27 CAG         -2.5270     8.3860     3.7870 ca         1 0J3      -0.136000
     28 CAI         -2.1610     8.1850     5.1050 ca         1 0J3      -0.063000
     29 CAW         -2.6450     7.0910     5.7980 ca         1 0J3      -0.158200
     30 NBC         -2.2530     6.8760     7.2090 no         1 0J3       0.293200
     31 OAC         -1.5040     7.6620     7.7590 o          1 0J3      -0.201000
     32 OAB         -2.6800     5.9120     7.8190 o          1 0J3      -0.201000
     33 H1          -0.3600    -0.8970     0.4900 h1         1 0J3       0.051450
     34 H2          -0.3600     0.0310    -1.0210 h1         1 0J3       0.051450
     35 H3           1.8910    -0.8860    -0.5080 h1         1 0J3       0.045200
     36 H4           1.8910     0.8860    -0.5090 h1         1 0J3       0.045200
     37 H6           3.8140    -0.9730     0.9180 h1         1 0J3       0.035033
     38 H7           3.8150    -0.1070     2.4600 h1         1 0J3       0.035033
     39 H8           3.9060     0.7930     0.9400 h1         1 0J3       0.035033
     40 H9           1.8920     2.0790     1.6220 h1         1 0J3       0.045200
     41 H10          1.8920     1.1520     3.1330 h1         1 0J3       0.045200
     42 H11         -0.3590     0.2970     2.6220 h1         1 0J3       0.051450
     43 H12         -0.3580     2.0700     2.6200 h1         1 0J3       0.051450
     44 H13         -1.9960     3.1850     1.6050 ha         1 0J3       0.143000
     45 H14         -2.0950    -0.5330    -0.4840 h4         1 0J3       0.033100
     46 H15         -6.5570     0.5500    -0.0650 ha         1 0J3       0.163000
     47 H16         -6.6370     4.1360     2.2330 ha         1 0J3       0.146000
     48 H17         -3.0350     4.3940     2.5880 hn         1 0J3       0.445800
     49 H18         -5.4830     5.0130     3.9180 h1         1 0J3       0.056200
     50 H19         -5.3900     5.9650     2.4300 h1         1 0J3       0.056200
     51 H20         -3.8870     5.3500     5.7200 ha         1 0J3       0.172000
     52 H21         -3.6730     7.6560     2.1330 ha         1 0J3       0.149000
     53 H22         -2.1450     9.2410     3.2420 ha         1 0J3       0.152000
     54 H23         -1.4860     8.8790     5.5910 ha         1 0J3       0.169000
@<TRIPOS>BOND
     1    31    30 1
     2    32    30 1
     3    30    29 1
     4    29    28 ar
     5    29    25 ar
     6    28    27 ar
     7    17    16 1
     8    25    24 ar
     9    27    26 ar
    10    18    16 1
    11    16    19 1
    12    16    15 1
    13    24    26 ar
    14    24    23 1
    15    15    20 ar
    16    15    14 ar
    17    20    21 ar
    18    23    22 1
    19    14    13 ar
    20    21    22 1
    21    21    10 ar
    22    13    10 ar
    23    13    12 ar
    24    10     9 ar
    25    12    11 ar
    26     9     8 ar
    27    11     8 ar
    28     8     7 1
    29     1     7 1
    30     1     2 1
    31     7     6 1
    32     2     3 1
    33     6     5 1
    34     3     5 1
    35     3     4 1
    36     1    33 1
    37     1    34 1
    38     2    35 1
    39     2    36 1
    40     4    37 1
    41     4    38 1
    42     4    39 1
    43     5    40 1
    44     5    41 1
    45     6    42 1
    46     6    43 1
    47     9    44 1
    48    11    45 1
    49    14    46 1
    50    20    47 1
    51    22    48 1
    52    23    49 1
    53    23    50 1
    54    25    51 1
    55    26    52 1
    56    27    53 1
    57    28    54 1
@<TRIPOS>SUBSTRUCTURE
     1 0J3         1 TEMP              0 ****  ****    0 ROOT
