@<TRIPOS>MOLECULE
0J3
   54    57     1     0     0
SMALL
bcc


@<TRIPOS>ATOM
      1 CAQ          0.0000     0.0000     0.0000 c3         1 0J3       0.135800
      2 CAO          1.5310     0.0000     0.0000 c3         1 0J3       0.153300
      3 NBD          2.0180     0.0000     1.3860 n3         1 0J3      -0.548600
      4 CAA          3.4850    -0.0770     1.4290 c3         1 0J3       0.190100
      5 CAP          1.5310     1.1820     2.1110 c3         1 0J3       0.153300
      6 CAR          0.0010     1.1830     2.1120 c3         1 0J3       0.135800
      7 NBE         -0.4860     1.1820     0.7250 nh         1 0J3      -0.360000
      8 CAX         -1.8820     1.2550     0.6860 ca         1 0J3      -0.085700
      9 CAM         -2.5420     2.2970     1.3110 ca         1 0J3      -0.113000
     10 CBB         -3.9450     2.3250     1.2420 ca         1 0J3      -0.142300
     11 CAJ         -2.6190     0.2780     0.0080 ca         1 0J3       0.363200
     12 NAT         -3.9270     0.3190    -0.0490 nb         1 0J3      -0.535000
     13 CBA         -4.6230     1.2980     0.5420 ca         1 0J3       0.377600
     14 CAN         -6.0260     1.3260     0.4730 ca         1 0J3      -0.128300
     15 CAY         -6.7190     2.3330     1.0740 ca         1 0J3      -0.150300
     16 CBF         -8.2240     2.3480     0.9890 c3         1 0J3       0.637200
     17 FAE         -8.7000     1.0360     0.9040 f          1 0J3      -0.208300
     18 FAF         -8.7480     2.9610     2.1320 f          1 0J3      -0.208300
     19 FAD         -8.6200     3.0630    -0.1460 f          1 0J3      -0.208300
     20 CAL         -6.0620     3.3470     1.7640 ca         1 0J3      -0.178000
     21 CAZ         -4.6860     3.3570     1.8560 ca         1 0J3       0.075600
     22 NAU         -4.0350     4.3750     2.5490 nu         1 0J3      -0.419600
     23 CAS         -4.8130     5.4420     3.1830 c3         1 0J3       0.226100
     24 CAV         -3.8770     6.4100     3.8610 ca         1 0J3      -0.142300
     25 CAK         -3.5080     6.2070     5.1770 ca         1 0J3       0.006000
     26 CAH         -3.3860     7.4980     3.1660 ca         1 0J3      -0.026000
     27 CAG         -2.5270     8.3860     3.7870 ca         1 0J3      -0.119000
     28 CAI         -2.1610     8.1850     5.1050 ca         1 0J3      -0.002000
     29 CAW         -2.6450     7.0910     5.7980 ca         1 0J3      -0.451200
     30 NBC         -2.2530     6.8760     7.2090 no         1 0J3       1.047200
     31 OAC         -1.5040     7.6620     7.7590 o          1 0J3      -0.446500
     32 OAB         -2.6800     5.9120     7.8190 o          1 0J3      -0.446500
     33 H1          -0.3600    -0.8970     0.4900 h1         1 0J3       0.025450
     34 H2          -0.3600     0.0310    -1.0210 h1         1 0J3       0.025450
     35 H3           1.8910    -0.8860    -0.5080 h1         1 0J3       0.016700
     36 H4           1.8910     0.8860    -0.5090 h1         1 0J3       0.016700
     37 H6           3.8140    -0.9730     0.9180 h1         1 0J3       0.002033
     38 H7           3.8150    -0.1070     2.4600 h1         1 0J3       0.002033
     39 H8           3.9060     0.7930     0.9400 h1         1 0J3       0.002033
     40 H9           1.8920     2.0790     1.6220 h1         1 0J3       0.016700
     41 H10          1.8920     1.1520     3.1330 h1         1 0J3       0.016700
     42 H11         -0.3590     0.2970     2.6220 h1         1 0J3       0.025450
     43 H12         -0.3580     2.0700     2.6200 h1         1 0J3       0.025450
     44 H13         -1.9960     3.1850     1.6050 ha         1 0J3       0.122000
     45 H14         -2.0950    -0.5330    -0.4840 h4         1 0J3      -0.000900
     46 H15         -6.5570     0.5500    -0.0650 ha         1 0J3       0.133000
     47 H16         -6.6370     4.1360     2.2330 ha         1 0J3       0.129000
     48 H17         -3.0350     4.3940     2.5880 hn         1 0J3       0.301800
     49 H18         -5.4830     5.0130     3.9180 h1         1 0J3       0.026200
     50 H19         -5.3900     5.9650     2.4300 h1         1 0J3       0.026200
     51 H20         -3.8870     5.3500     5.7200 ha         1 0J3       0.139000
     52 H21         -3.6730     7.6560     2.1330 ha         1 0J3       0.114000
     53 H22         -2.1450     9.2410     3.2420 ha         1 0J3       0.119000
     54 H23         -1.4860     8.8790     5.5910 ha         1 0J3       0.134000
@<TRIPOS>BOND
     1     1     2 1   
     2     1     7 1   
     3     1    33 1   
     4     1    34 1   
     5     2     3 1   
     6     2    35 1   
     7     2    36 1   
     8     3     4 1   
     9     3     5 1   
    10     4    37 1   
    11     4    38 1   
    12     4    39 1   
    13     5     6 1   
    14     5    40 1   
    15     5    41 1   
    16     6     7 1   
    17     6    42 1   
    18     6    43 1   
    19     7     8 1   
    20     8     9 ar  
    21     8    11 ar  
    22     9    10 ar  
    23     9    44 1   
    24    10    13 ar  
    25    10    21 ar  
    26    11    12 ar  
    27    11    45 1   
    28    12    13 ar  
    29    13    14 ar  
    30    14    15 ar  
    31    14    46 1   
    32    15    16 1   
    33    15    20 ar  
    34    16    17 1   
    35    16    18 1   
    36    16    19 1   
    37    20    21 ar  
    38    20    47 1   
    39    21    22 1   
    40    22    23 1   
    41    22    48 1   
    42    23    24 1   
    43    23    49 1   
    44    23    50 1   
    45    24    25 ar  
    46    24    26 ar  
    47    25    29 ar  
    48    25    51 1   
    49    26    27 ar  
    50    26    52 1   
    51    27    28 ar  
    52    27    53 1   
    53    28    29 ar  
    54    28    54 1   
    55    29    30 1   
    56    30    31 1   
    57    30    32 1   
@<TRIPOS>SUBSTRUCTURE
     1 0J3         1 TEMP              0 ****  ****    0 ROOT
