@<TRIPOS>MOLECULE
0J4
   27    28     1     0     0
SMALL
bcc


@<TRIPOS>ATOM
      1 O1           0.1360    -0.8310     0.0040 o          1 0J4      -0.526500
      2 C4           1.3380    -0.6150    -0.1360 c          1 0J4       0.755700
      3 N1           1.9750    -0.0090     1.0220 ns         1 0J4      -0.503400
      4 C1           3.3310     0.2500     0.9660 cc         1 0J4       0.557800
      5 N5           3.9520     0.9840     2.1310 nz         1 0J4      -0.813600
      6 N2           4.1760    -0.0720     0.0000 nd         1 0J4      -0.616300
      7 C2           3.5990    -0.6140    -1.1700 cd         1 0J4       0.364600
      8 C3           2.2210    -0.8780    -1.2540 cc         1 0J4      -0.308400
      9 C6           1.6720    -1.2670    -2.5700 c          1 0J4       0.507000
     10 O2           0.6600    -1.9450    -2.7180 o          1 0J4      -0.475100
     11 N3           4.4070    -0.8940    -2.2840 na         1 0J4      -0.342100
     12 N4           3.8810    -0.7120    -3.5150 nc         1 0J4      -0.450400
     13 C5           2.5720    -0.7890    -3.6850 cd         1 0J4       0.448300
     14 C7           1.9400    -0.1130    -4.8570 c3         1 0J4      -0.260000
     15 C10          0.6750    -0.7530    -5.3560 c3         1 0J4      -0.074100
     16 C8           1.6590     1.3750    -4.3750 c          1 0J4       0.940600
     17 O4           1.9270     1.6470    -3.1690 o          1 0J4      -0.815300
     18 O3           1.2130     2.1610    -5.2370 o          1 0J4      -0.815300
     19 H1           3.5820     1.9410     2.1480 hn         1 0J4       0.474133
     20 H2           4.9740     1.0210     2.0080 hn         1 0J4       0.474133
     21 H5           2.6690    -0.0280    -5.7100 hc         1 0J4       0.080700
     22 H6           0.8630    -1.7940    -5.7120 hc         1 0J4       0.041367
     23 H7          -0.1070    -0.7870    -4.5590 hc         1 0J4       0.041367
     24 H8           0.2810    -0.1380    -6.2030 hc         1 0J4       0.041367
     25 H4           1.3910     0.3180     1.7600 hn         1 0J4       0.337500
     26 H3           5.3640    -0.5780    -2.2560 hn         1 0J4       0.461800
     27 H53          3.7320     0.5030     3.0070 hn         1 0J4       0.474133
@<TRIPOS>BOND
     1     1     2 2   
     2     2     3 1   
     3     2     8 1   
     4     3     4 1   
     5     3    25 1   
     6     4     5 1   
     7     4     6 2   
     8     5    19 1   
     9     5    20 1   
    10     5    27 1   
    11     6     7 1   
    12     7     8 2   
    13     7    11 1   
    14     8     9 1   
    15     9    10 2   
    16     9    13 1   
    17    11    12 1   
    18    11    26 1   
    19    12    13 2   
    20    13    14 1   
    21    14    15 1   
    22    14    16 1   
    23    14    21 1   
    24    15    22 1   
    25    15    23 1   
    26    15    24 1   
    27    16    17 1   
    28    16    18 1   
@<TRIPOS>SUBSTRUCTURE
     1 0J4         1 TEMP              0 ****  ****    0 ROOT
