@<TRIPOS>MOLECULE
molecule
   27    28     1     0     0
SMALL
bcc


@<TRIPOS>ATOM
      1 O1           0.0000     0.0000     0.0000 o          1 0J4      -0.515500
      2 C4           1.2170     0.0000     0.0000 c          1 0J4       0.707700
      3 N1           1.9200     0.0000     1.1580 ns         1 0J4      -0.465400
      4 C1           3.2820    -0.0000     1.1310 cc         1 0J4       0.493800
      5 N5           3.9570    -0.0010     2.3200 nz         1 0J4      -0.739600
      6 N2           3.9760     0.0010     0.0150 nd         1 0J4      -0.632300
      7 C2           3.3820     0.0030    -1.1810 cd         1 0J4       0.369600
      8 C3           1.9770    -0.0040    -1.2490 cc         1 0J4      -0.330400
      9 C6           1.3450    -0.0090    -2.5150 c          1 0J4       0.457000
     10 O2           0.1280    -0.0090    -2.6040 o          1 0J4      -0.426100
     11 N3           4.1040     0.0040    -2.3400 na         1 0J4      -0.389100
     12 N4           3.4560     0.0050    -3.5800 nc         1 0J4      -0.406400
     13 C5           2.1600    -0.0130    -3.6800 cd         1 0J4       0.436300
     14 C7           1.5160    -0.0180    -5.0420 c3         1 0J4      -0.207000
     15 C10          2.5970     0.1040    -6.1190 c3         1 0J4      -0.068100
     16 C8           0.7590    -1.3070    -5.2350 c          1 0J4       0.906600
     17 O4           0.1020    -1.5350    -6.3830 o          1 0J4      -0.814300
     18 O3           0.7440    -2.1360    -4.3560 o          1 0J4      -0.814300
     19 H1           4.9430    -0.0040     2.1440 hn         1 0J4       0.473133
     20 H2           3.7140     0.8160     2.8430 hn         1 0J4       0.473133
     21 H5           0.8310     0.8180    -5.1210 hc         1 0J4       0.087700
     22 H6           3.2550    -0.7560    -6.0690 hc         1 0J4       0.036367
     23 H7           2.1310     0.1460    -7.0960 hc         1 0J4       0.036367
     24 H8           3.1710     1.0070    -5.9530 hc         1 0J4       0.036367
     25 H4           1.4380     0.0000     2.0350 hn         1 0J4       0.331500
     26 H3           5.1040     0.0180    -2.3020 hn         1 0J4       0.487800
     27 H53          3.7100    -0.8180     2.8430 hn         1 0J4       0.473133
@<TRIPOS>BOND
     1     5     4 1
     2     3     4 1
     3     3     2 1
     4     4     6 2
     5     1     2 2
     6     2     8 1
     7     6     7 1
     8     8     7 2
     9     8     9 1
    10     7    11 1
    11     9    10 2
    12     9    13 1
    13    11    12 1
    14    12    13 2
    15    13    14 1
    16    15    14 1
    17    14    16 1
    18    18    16 1
    19    16    17 1
    20     5    19 1
    21     5    20 1
    22    14    21 1
    23    15    22 1
    24    15    23 1
    25    15    24 1
    26     3    25 1
    27    11    26 1
    28    27     5 1
@<TRIPOS>SUBSTRUCTURE
     1 0J4         1 TEMP              0 ****  ****    0 ROOT
