@<TRIPOS>MOLECULE
0J5
   24    25     1     0     0
SMALL
bcc


@<TRIPOS>ATOM
      1 O4           0.0000     0.0000     0.0000 o          1 0J5      -0.865300
      2 C8           1.3420     0.0000     0.0000 c          1 0J5       0.964600
      3 O3           1.9470     0.0000     1.0460 o          1 0J5      -0.865300
      4 C7           2.0950    -0.0020    -1.3060 c3         1 0J5      -0.167700
      5 C5           3.5760    -0.0030    -1.0320 cc         1 0J5       0.392300
      6 C6           4.4950     0.0020    -2.1180 c          1 0J5       0.486000
      7 O2           4.0960     0.0010    -3.2710 o          1 0J5      -0.517100
      8 C3           5.8800     0.0070    -1.8300 cc         1 0J5      -0.369400
      9 C4           6.8930     0.0110    -2.8840 c          1 0J5       0.625700
     10 O1           6.5810     0.0110    -4.0620 o          1 0J5      -0.563500
     11 N4           4.0050    -0.0010     0.1950 nd         1 0J5      -0.369400
     12 N3           5.3690    -0.0010     0.5040 na         1 0J5       0.086900
     13 C2           6.3050     0.0080    -0.4900 cd         1 0J5       0.126600
     14 N2           7.6130     0.0120    -0.2220 nd         1 0J5      -0.439300
     15 C1           8.5150     0.0150    -1.1790 cc         1 0J5       0.033800
     16 N5           9.8370     0.0190    -0.8300 nz         1 0J5       0.205400
     17 N1           8.1910     0.0160    -2.5010 ns         1 0J5      -0.008400
     18 H2           1.8340     0.8820    -1.8750 hc         1 0J5       0.048700
     19 H3           1.8320    -0.8870    -1.8730 hc         1 0J5       0.048700
     20 H5          10.2770     0.8380    -1.2000 hn         1 0J5       0.215800
     21 H6           9.9190     0.0180     0.1670 hn         1 0J5       0.215800
     22 H7           8.9150     0.0190    -3.1920 hn         1 0J5       0.176500
     23 H4           5.6620    -0.0000     1.4610 hn         1 0J5       0.319800
     24 H53         10.2820    -0.7960    -1.2020 hn         1 0J5       0.215800
@<TRIPOS>BOND
     1     1     2 1   
     2     2     3 1   
     3     2     4 1   
     4     4     5 1   
     5     4    18 1   
     6     4    19 1   
     7     5     6 1   
     8     5    11 2   
     9     6     7 2   
    10     6     8 1   
    11     8     9 1   
    12     8    13 2   
    13     9    10 2   
    14     9    17 1   
    15    11    12 1   
    16    12    13 1   
    17    12    23 1   
    18    13    14 1   
    19    14    15 2   
    20    15    16 1   
    21    15    17 1   
    22    16    20 1   
    23    16    21 1   
    24    16    24 1   
    25    17    22 1   
@<TRIPOS>SUBSTRUCTURE
     1 0J5         1 TEMP              0 ****  ****    0 ROOT
