@<TRIPOS>MOLECULE
0J5
   24    25     1     0     0
SMALL
bcc


@<TRIPOS>ATOM
      1 O4           0.0590     1.8810    -0.8530 o          1 0J5      -0.812300
      2 C8           0.5910     0.8160    -0.4300 c          1 0J5       0.939600
      3 O3           0.1740     0.0800     0.4900 o          1 0J5      -0.812300
      4 C7           1.9250     0.3530    -1.1350 c3         1 0J5      -0.283700
      5 C5           2.1360     1.2570    -2.2900 cc         1 0J5       0.444300
      6 C6           2.8360     2.5560    -1.9790 c          1 0J5       0.501000
      7 O2           3.7790     2.6560    -1.1980 o          1 0J5      -0.478100
      8 C3           2.2840     3.6730    -2.7670 cc         1 0J5      -0.328400
      9 C4           2.4200     5.0370    -2.2990 c          1 0J5       0.752700
     10 O1           3.0810     5.5080    -1.3750 o          1 0J5      -0.523500
     11 N4           1.5440     1.0400    -3.4520 nd         1 0J5      -0.440400
     12 N3           1.4360     2.0450    -4.3420 na         1 0J5      -0.339100
     13 C2           1.5130     3.3700    -3.9050 cd         1 0J5       0.371600
     14 N2           0.8290     4.3790    -4.6230 nd         1 0J5      -0.622300
     15 C1           0.9060     5.6010    -4.1230 cc         1 0J5       0.561800
     16 N5           0.0540     6.6280    -4.8320 nz         1 0J5      -0.814600
     17 N1           1.6620     6.0270    -3.0490 ns         1 0J5      -0.507400
     18 H2           1.8040    -0.7180    -1.4290 hc         1 0J5       0.080700
     19 H3           2.7640     0.4460    -0.4040 hc         1 0J5       0.080700
     20 H5           0.6350     7.4140    -5.1360 hn         1 0J5       0.474800
     21 H6          -0.6730     6.9560    -4.1860 hn         1 0J5       0.474800
     22 H7           1.6390     6.9610    -2.7040 hn         1 0J5       0.337500
     23 H4           0.7810     1.8180    -5.0730 hn         1 0J5       0.469800
     24 H53         -0.3950     6.1960    -5.6520 hn         1 0J5       0.474800
@<TRIPOS>BOND
     1     1     2 1   
     2     2     3 1   
     3     2     4 1   
     4     4     5 1   
     5     4    18 1   
     6     4    19 1   
     7     5     6 1   
     8     5    11 2   
     9     6     7 2   
    10     6     8 1   
    11     8     9 1   
    12     8    13 2   
    13     9    10 2   
    14     9    17 1   
    15    11    12 1   
    16    12    13 1   
    17    12    23 1   
    18    13    14 1   
    19    14    15 2   
    20    15    16 1   
    21    15    17 1   
    22    16    20 1   
    23    16    21 1   
    24    16    24 1   
    25    17    22 1   
@<TRIPOS>SUBSTRUCTURE
     1 0J5         1 TEMP              0 ****  ****    0 ROOT
