@<TRIPOS>MOLECULE
0J6
   34    37     1     0     0
SMALL
bcc


@<TRIPOS>ATOM
      1 O14          0.0000     0.0000     0.0000 o          1 0J6      -0.636100
      2 C13          1.2160     0.0000     0.0000 c          1 0J6       0.596700
      3 C15          1.9540     0.0000     1.2770 ca         1 0J6      -0.221600
      4 C20          1.2510    -0.0000     2.4670 ca         1 0J6       0.074000
      5 C19          1.9550     0.0000     3.6840 ca         1 0J6      -0.221000
      6 C23          1.5910    -0.0000     5.0200 cc         1 0J6      -0.255100
      7 N22          2.7120     0.0010     5.7510 na         1 0J6       0.561800
      8 N21          3.8310     0.0010     4.9110 nc         1 0J6      -0.444400
      9 C18          3.4270     0.0000     3.6550 ca         1 0J6       0.013000
     10 C17          4.0870     0.0010     2.4040 ca         1 0J6      -0.084000
     11 C16          3.3650    -0.0050     1.2610 ca         1 0J6      -0.067000
     12 N12          1.8890    -0.0050    -1.1680 ns         1 0J6      -0.046100
     13 C8           1.1930    -0.1090    -2.3760 ca         1 0J6      -0.082400
     14 C7          -0.0470     0.4940    -2.5150 ca         1 0J6      -0.055000
     15 C9           1.7480    -0.8120    -3.4390 ca         1 0J6      -0.117000
     16 C10          1.0630    -0.9170    -4.6360 ca         1 0J6      -0.080000
     17 C11         -0.1740    -0.3240    -4.7820 ca         1 0J6      -0.116000
     18 C6          -0.7370     0.3880    -3.7230 ca         1 0J6      -0.124500
     19 C2          -2.0610     1.0290    -3.8790 cc         1 0J6       0.310000
     20 N3          -2.8430     1.0040    -4.9870 na         1 0J6       0.285600
     21 N4          -3.9880     1.7470    -4.6470 nc         1 0J6      -0.403800
     22 N5          -3.8280     2.1450    -3.4320 nd         1 0J6       0.033000
     23 N1          -2.7060     1.7280    -2.9670 nd         1 0J6      -0.382000
     24 H1           0.1780    -0.1490     2.4620 ha         1 0J6       0.125000
     25 H2           0.5780    -0.0000     5.4050 h4         1 0J6       0.152000
     26 H3           2.7440     0.0010     6.7510 hn         1 0J6       0.141700
     27 H4           5.1690    -0.0040     2.3620 ha         1 0J6       0.114000
     28 H5           3.8820    -0.0140     0.3100 ha         1 0J6       0.095000
     29 H6           2.8850     0.0980    -1.1720 hn         1 0J6       0.177500
     30 H7          -0.4800     1.0450    -1.6890 ha         1 0J6       0.173000
     31 H8           2.7190    -1.2800    -3.3300 ha         1 0J6       0.108000
     32 H9           1.4990    -1.4670    -5.4610 ha         1 0J6       0.106000
     33 H10         -0.7070    -0.4080    -5.7220 ha         1 0J6       0.094000
     34 H11         -2.6470     0.5540    -5.8590 hn         1 0J6       0.172700
@<TRIPOS>BOND
     1     1     2 2   
     2     2     3 1   
     3     2    12 1   
     4     3     4 ar  
     5     3    11 ar  
     6     4     5 ar  
     7     4    24 1   
     8     5     6 2   
     9     5     9 ar  
    10     6     7 1   
    11     6    25 1   
    12     7     8 1   
    13     7    26 1   
    14     8     9 2   
    15     9    10 ar  
    16    10    11 ar  
    17    10    27 1   
    18    11    28 1   
    19    12    13 1   
    20    12    29 1   
    21    13    14 ar  
    22    13    15 ar  
    23    14    18 ar  
    24    14    30 1   
    25    15    16 ar  
    26    15    31 1   
    27    16    17 ar  
    28    16    32 1   
    29    17    18 ar  
    30    17    33 1   
    31    18    19 1   
    32    19    20 1   
    33    19    23 2   
    34    20    21 1   
    35    20    34 1   
    36    21    22 2   
    37    22    23 1   
@<TRIPOS>SUBSTRUCTURE
     1 0J6         1 TEMP              0 ****  ****    0 ROOT
