@<TRIPOS>MOLECULE
0J6
   34    37     1     0     0
SMALL
bcc


@<TRIPOS>ATOM
      1 O14          0.0180     0.9330     0.0250 o          1 0J6      -0.583100
      2 C13          1.1320     0.3790     0.0520 c          1 0J6       0.686700
      3 C15          1.8840     0.2070     1.3300 ca         1 0J6      -0.173600
      4 C20          1.1740    -0.1490     2.4550 ca         1 0J6      -0.003000
      5 C19          1.8730    -0.3120     3.6660 ca         1 0J6      -0.151000
      6 C23          1.5220    -0.6680     4.9910 cc         1 0J6      -0.137100
      7 N22          2.7050    -0.6410     5.7130 na         1 0J6       0.056800
      8 N21          3.7760    -0.3050     5.0000 nc         1 0J6      -0.271400
      9 C18          3.3220    -0.0870     3.7190 ca         1 0J6      -0.067000
     10 C17          4.0100     0.3040     2.5350 ca         1 0J6      -0.088000
     11 C16          3.2930     0.4420     1.3780 ca         1 0J6      -0.112000
     12 N12          1.7470    -0.1360    -1.0860 ns         1 0J6      -0.472100
     13 C8           1.2490    -0.1360    -2.3970 ca         1 0J6       0.076600
     14 C7           1.9510    -0.8740    -3.3800 ca         1 0J6      -0.175000
     15 C9           0.0900     0.5750    -2.7850 ca         1 0J6      -0.134000
     16 C10         -0.3440     0.5340    -4.1050 ca         1 0J6      -0.108000
     17 C11          0.3470    -0.1940    -5.0720 ca         1 0J6      -0.108000
     18 C6           1.5010    -0.8940    -4.7030 ca         1 0J6      -0.115500
     19 C2           2.2250    -1.6520    -5.7130 cc         1 0J6       0.454000
     20 N3           3.6050    -1.9500    -5.6950 na         1 0J6      -0.184400
     21 N4           3.8940    -2.6530    -6.7980 nc         1 0J6      -0.195800
     22 N5           2.8060    -2.7950    -7.4640 nd         1 0J6      -0.048000
     23 N1           1.7620    -2.2200    -6.8740 nd         1 0J6      -0.368000
     24 H1           0.0830    -0.2990     2.4150 ha         1 0J6       0.156000
     25 H2           0.5600    -0.9230     5.4330 h4         1 0J6       0.188000
     26 H3           2.8080    -0.8420     6.6830 hn         1 0J6       0.327700
     27 H4           5.0920     0.4930     2.5740 ha         1 0J6       0.151000
     28 H5           3.8080     0.7700     0.4610 ha         1 0J6       0.135000
     29 H6           2.6000    -0.6330    -0.9480 hn         1 0J6       0.320500
     30 H7           2.8460    -1.4500    -3.0980 ha         1 0J6       0.126000
     31 H8          -0.4820     1.1620    -2.0470 ha         1 0J6       0.180000
     32 H9          -1.2520     1.0880    -4.3890 ha         1 0J6       0.145000
     33 H10         -0.0130    -0.2200    -6.1130 ha         1 0J6       0.161000
     34 H11          4.2890    -1.6960    -5.0220 hn         1 0J6       0.331700
@<TRIPOS>BOND
     1     1     2 2   
     2     2     3 1   
     3     2    12 1   
     4     3     4 ar  
     5     3    11 ar  
     6     4     5 ar  
     7     4    24 1   
     8     5     6 2   
     9     5     9 ar  
    10     6     7 1   
    11     6    25 1   
    12     7     8 1   
    13     7    26 1   
    14     8     9 2   
    15     9    10 ar  
    16    10    11 ar  
    17    10    27 1   
    18    11    28 1   
    19    12    13 1   
    20    12    29 1   
    21    13    14 ar  
    22    13    15 ar  
    23    14    18 ar  
    24    14    30 1   
    25    15    16 ar  
    26    15    31 1   
    27    16    17 ar  
    28    16    32 1   
    29    17    18 ar  
    30    17    33 1   
    31    18    19 1   
    32    19    20 1   
    33    19    23 2   
    34    20    21 1   
    35    20    34 1   
    36    21    22 2   
    37    22    23 1   
@<TRIPOS>SUBSTRUCTURE
     1 0J6         1 TEMP              0 ****  ****    0 ROOT
