@<TRIPOS>MOLECULE
0J7
   39    42     1     0     0
SMALL
bcc


@<TRIPOS>ATOM
      1 O26          0.0000     0.0000     0.0000 o          1 0J7      -0.621100
      2 C13          1.2160     0.0000     0.0000 c          1 0J7       0.588700
      3 N12          1.8890     0.0000     1.1680 ns         1 0J7      -0.045100
      4 C8           1.1920     0.0980     2.3770 ca         1 0J7      -0.085400
      5 C7          -0.0480    -0.5070     2.5140 ca         1 0J7      -0.054000
      6 C9           1.7460     0.7960     3.4440 ca         1 0J7      -0.116000
      7 C10          1.0610     0.8960     4.6400 ca         1 0J7      -0.080000
      8 C11         -0.1760     0.3010     4.7830 ca         1 0J7      -0.115000
      9 C6          -0.7380    -0.4070     3.7210 ca         1 0J7      -0.122500
     10 C5          -2.0630    -1.0490     3.8730 cc         1 0J7       0.308000
     11 N4          -2.8430    -1.0330     4.9830 na         1 0J7       0.285600
     12 N3          -3.9880    -1.7720     4.6390 nc         1 0J7      -0.402800
     13 N2          -3.8310    -2.1600     3.4190 nd         1 0J7       0.033000
     14 N1          -2.7090    -1.7370     2.9570 nd         1 0J7      -0.379000
     15 C14          1.9560    -0.0050    -1.2800 ca         1 0J7      -0.178600
     16 C19          3.3520    -0.0110    -1.2800 ca         1 0J7      -0.071000
     17 C18          4.0440    -0.0220    -2.4760 ca         1 0J7      -0.123000
     18 C17          3.3590    -0.0280    -3.6760 ca         1 0J7      -0.036000
     19 C16          1.9640    -0.0220    -3.6880 cp         1 0J7      -0.173500
     20 C15          1.2610    -0.0110    -2.4880 ca         1 0J7       0.010000
     21 C20          1.2320    -0.0280    -4.9780 cp         1 0J7       0.660500
     22 N25         -0.0940    -0.0160    -4.9710 nb         1 0J7      -0.615500
     23 C24         -0.7760    -0.0200    -6.1030 ca         1 0J7       0.446200
     24 C23         -0.0880    -0.0370    -7.3070 ca         1 0J7      -0.351600
     25 C22          1.2980    -0.0480    -7.2790 ca         1 0J7       0.446200
     26 N21          1.9200    -0.0380    -6.1120 nb         1 0J7      -0.615500
     27 H1           2.8830    -0.1170     1.1720 hn         1 0J7       0.176500
     28 H2          -0.4800    -1.0550     1.6850 ha         1 0J7       0.172000
     29 H3           2.7170     1.2650     3.3360 ha         1 0J7       0.107000
     30 H4           1.4970     1.4430     5.4670 ha         1 0J7       0.107000
     31 H5          -0.7100     0.3810     5.7230 ha         1 0J7       0.094000
     32 H6          -2.6460    -0.5910     5.8580 hn         1 0J7       0.172700
     33 H7           3.8940    -0.0070    -0.3420 ha         1 0J7       0.097000
     34 H8           5.1270    -0.0270    -2.4730 ha         1 0J7       0.108000
     35 H9           3.9070    -0.0370    -4.6100 ha         1 0J7       0.125000
     36 H10          0.1780    -0.0060    -2.4930 ha         1 0J7       0.149000
     37 H11         -1.8590    -0.0110    -6.0900 h4         1 0J7      -0.013400
     38 H12         -0.6230    -0.0430    -8.2500 ha         1 0J7       0.124000
     39 H13          1.8660    -0.0590    -8.2020 h4         1 0J7      -0.013400
@<TRIPOS>BOND
     1     1     2 2   
     2     2     3 1   
     3     2    15 1   
     4     3     4 1   
     5     3    27 1   
     6     4     5 ar  
     7     4     6 ar  
     8     5     9 ar  
     9     5    28 1   
    10     6     7 ar  
    11     6    29 1   
    12     7     8 ar  
    13     7    30 1   
    14     8     9 ar  
    15     8    31 1   
    16     9    10 1   
    17    10    11 1   
    18    10    14 2   
    19    11    12 1   
    20    11    32 1   
    21    12    13 2   
    22    13    14 1   
    23    15    16 ar  
    24    15    20 ar  
    25    16    17 ar  
    26    16    33 1   
    27    17    18 ar  
    28    17    34 1   
    29    18    19 ar  
    30    18    35 1   
    31    19    20 ar  
    32    19    21 1   
    33    20    36 1   
    34    21    22 ar  
    35    21    26 ar  
    36    22    23 ar  
    37    23    24 ar  
    38    23    37 1   
    39    24    25 ar  
    40    24    38 1   
    41    25    26 ar  
    42    25    39 1   
@<TRIPOS>SUBSTRUCTURE
     1 0J7         1 TEMP              0 ****  ****    0 ROOT
