@<TRIPOS>MOLECULE
molecule
   39    42     1     0     0
SMALL
bcc


@<TRIPOS>ATOM
      1 O26          0.0000     0.0000     0.0000 o          1 0J7      -0.580100
      2 C13          1.2160     0.0000     0.0000 c          1 0J7       0.676700
      3 N12          1.8890     0.0000     1.1680 ns         1 0J7      -0.480100
      4 C8           1.1920     0.0980     2.3770 ca         1 0J7       0.057600
      5 C7          -0.0480    -0.5070     2.5140 ca         1 0J7      -0.076000
      6 C9           1.7460     0.7960     3.4440 ca         1 0J7      -0.142000
      7 C10          1.0610     0.8960     4.6400 ca         1 0J7      -0.112000
      8 C11         -0.1760     0.3010     4.7830 ca         1 0J7      -0.132000
      9 C6          -0.7380    -0.4070     3.7210 ca         1 0J7      -0.127500
     10 C5          -2.0630    -1.0490     3.8730 cc         1 0J7       0.478000
     11 N4          -2.8430    -1.0330     4.9830 na         1 0J7      -0.192400
     12 N3          -3.9880    -1.7720     4.6390 nd         1 0J7      -0.215800
     13 N2          -3.8310    -2.1600     3.4190 nc         1 0J7      -0.004000
     14 N1          -2.7090    -1.7370     2.9570 nc         1 0J7      -0.403000
     15 C14          1.9560    -0.0050    -1.2800 ca         1 0J7      -0.165600
     16 C19          3.3520    -0.0110    -1.2800 ca         1 0J7      -0.090000
     17 C18          4.0440    -0.0220    -2.4760 ca         1 0J7      -0.151000
     18 C17          3.3590    -0.0280    -3.6760 ca         1 0J7      -0.059000
     19 C16          1.9640    -0.0220    -3.6880 cp         1 0J7      -0.152500
     20 C15          1.2610    -0.0110    -2.4880 ca         1 0J7      -0.020000
     21 C20          1.2320    -0.0280    -4.9780 cp         1 0J7       0.740500
     22 N25         -0.0940    -0.0160    -4.9710 nb         1 0J7      -0.732000
     23 C24         -0.7760    -0.0200    -6.1030 ca         1 0J7       0.464200
     24 C23         -0.0880    -0.0370    -7.3070 ca         1 0J7      -0.387600
     25 C22          1.2980    -0.0480    -7.2790 ca         1 0J7       0.464200
     26 N21          1.9200    -0.0380    -6.1120 nb         1 0J7      -0.732000
     27 H1           2.8830    -0.1170     1.1720 hn         1 0J7       0.328500
     28 H2          -0.4800    -1.0550     1.6850 ha         1 0J7       0.196000
     29 H3           2.7170     1.2650     3.3360 ha         1 0J7       0.135000
     30 H4           1.4970     1.4430     5.4670 ha         1 0J7       0.138000
     31 H5          -0.7100     0.3810     5.7230 ha         1 0J7       0.122000
     32 H6          -2.6460    -0.5910     5.8580 hn         1 0J7       0.336700
     33 H7           3.8940    -0.0070    -0.3420 ha         1 0J7       0.122000
     34 H8           5.1270    -0.0270    -2.4730 ha         1 0J7       0.138000
     35 H9           3.9070    -0.0370    -4.6100 ha         1 0J7       0.159000
     36 H10          0.1780    -0.0060    -2.4930 ha         1 0J7       0.183000
     37 H11         -1.8590    -0.0110    -6.0900 h4         1 0J7       0.033100
     38 H12         -0.6230    -0.0430    -8.2500 ha         1 0J7       0.148000
     39 H13          1.8660    -0.0590    -8.2020 h4         1 0J7       0.033100
@<TRIPOS>BOND
     1    17    18 ar  
     2    17    16 ar  
     3    18    19 ar  
     4    16    15 ar  
     5    22    23 ar  
     6    22    21 ar  
     7    19    21 1   
     8    19    20 ar  
     9    23    24 ar  
    10    15    20 ar  
    11    15     2 1   
    12    14    13 1   
    13    14    10 2   
    14    13    12 2   
    15    21    26 ar  
    16     3     2 1   
    17     3     4 1   
    18     2     1 2   
    19     5     4 ar  
    20     5     9 ar  
    21    24    25 ar  
    22    10     9 1   
    23    10    11 1   
    24     4     6 ar  
    25    12    11 1   
    26    26    25 ar  
    27     9     8 ar  
    28     6     7 ar  
    29     8     7 ar  
    30     3    27 1   
    31     5    28 1   
    32     6    29 1   
    33     7    30 1   
    34     8    31 1   
    35    11    32 1   
    36    16    33 1   
    37    17    34 1   
    38    18    35 1   
    39    20    36 1   
    40    23    37 1   
    41    24    38 1   
    42    25    39 1   
@<TRIPOS>SUBSTRUCTURE
     1 0J7         1 TEMP              0 ****  ****    0 ROOT
