@<TRIPOS>MOLECULE
0J7
   39    42     1     0     0
SMALL
bcc


@<TRIPOS>ATOM
      1 O26          0.0250    -1.1420     0.1640 o          1 0J7      -0.576100
      2 C13          1.1550    -0.6410     0.0300 c          1 0J7       0.684700
      3 N12          1.8200     0.0110     1.0650 ns         1 0J7      -0.472100
      4 C8           1.3670     0.2030     2.3780 ca         1 0J7       0.074600
      5 C7           2.1180     1.0580     3.2230 ca         1 0J7      -0.140000
      6 C9           0.2150    -0.4240     2.9000 ca         1 0J7      -0.136000
      7 C10         -0.1620    -0.2010     4.2210 ca         1 0J7      -0.105000
      8 C11          0.5770     0.6360     5.0520 ca         1 0J7      -0.145000
      9 C6           1.7200     1.2680     4.5460 ca         1 0J7      -0.114500
     10 C5           2.5160     2.1480     5.3870 cc         1 0J7       0.454000
     11 N4           2.0680     2.8050     6.5540 na         1 0J7      -0.181400
     12 N3           3.0860     3.5250     7.0440 nc         1 0J7      -0.194800
     13 N2           4.0940     3.3510     6.2690 nd         1 0J7      -0.048000
     14 N1           3.8270     2.5360     5.2520 nd         1 0J7      -0.375000
     15 C14          1.8810    -0.6890    -1.2730 ca         1 0J7      -0.162600
     16 C19          3.2460    -0.9850    -1.3430 ca         1 0J7      -0.090000
     17 C18          3.8780    -1.0350    -2.5840 ca         1 0J7      -0.147000
     18 C17          3.1600    -0.7860    -3.7530 ca         1 0J7      -0.064000
     19 C16          1.7910    -0.4980    -3.6840 cp         1 0J7      -0.144500
     20 C15          1.1470    -0.4580    -2.4420 ca         1 0J7      -0.036000
     21 C20          1.0220    -0.2350    -4.9280 cp         1 0J7       0.693500
     22 N25          1.6550     0.4620    -5.9290 nb         1 0J7      -0.687500
     23 C24          0.9410     0.6910    -7.0470 ca         1 0J7       0.430700
     24 C23         -0.3850     0.2480    -7.2080 ca         1 0J7      -0.363600
     25 C22         -0.9440    -0.4590    -6.1270 ca         1 0J7       0.430700
     26 N21         -0.2670    -0.7080    -4.9910 nb         1 0J7      -0.687500
     27 H1           2.6900     0.4450     0.8410 hn         1 0J7       0.324500
     28 H2           3.0230     1.5610     2.8460 ha         1 0J7       0.157000
     29 H3          -0.3970    -1.0930     2.2700 ha         1 0J7       0.181000
     30 H4          -1.0620    -0.7010     4.6120 ha         1 0J7       0.143000
     31 H5           0.2630     0.7780     6.0950 ha         1 0J7       0.130000
     32 H6           1.1700     2.7810     6.9770 hn         1 0J7       0.334700
     33 H7           3.8240    -1.1980    -0.4300 ha         1 0J7       0.140000
     34 H8           4.9510    -1.2730    -2.6430 ha         1 0J7       0.143000
     35 H9           3.6750    -0.8210    -4.7260 ha         1 0J7       0.155000
     36 H10          0.0640    -0.2580    -2.3670 ha         1 0J7       0.171000
     37 H11          1.4600     1.2560    -7.8430 h4         1 0J7       0.032100
     38 H12         -0.9510     0.4420    -8.1240 ha         1 0J7       0.158000
     39 H13         -1.9790    -0.8460    -6.1650 h4         1 0J7       0.032100
@<TRIPOS>BOND
     1     1     2 2   
     2     2     3 1   
     3     2    15 1   
     4     3     4 1   
     5     3    27 1   
     6     4     5 ar  
     7     4     6 ar  
     8     5     9 ar  
     9     5    28 1   
    10     6     7 ar  
    11     6    29 1   
    12     7     8 ar  
    13     7    30 1   
    14     8     9 ar  
    15     8    31 1   
    16     9    10 1   
    17    10    11 1   
    18    10    14 2   
    19    11    12 1   
    20    11    32 1   
    21    12    13 2   
    22    13    14 1   
    23    15    16 ar  
    24    15    20 ar  
    25    16    17 ar  
    26    16    33 1   
    27    17    18 ar  
    28    17    34 1   
    29    18    19 ar  
    30    18    35 1   
    31    19    20 ar  
    32    19    21 1   
    33    20    36 1   
    34    21    22 ar  
    35    21    26 ar  
    36    22    23 ar  
    37    23    24 ar  
    38    23    37 1   
    39    24    25 ar  
    40    24    38 1   
    41    25    26 ar  
    42    25    39 1   
@<TRIPOS>SUBSTRUCTURE
     1 0J7         1 TEMP              0 ****  ****    0 ROOT
