@<TRIPOS>MOLECULE
0J8
   57    61     1     0     0
SMALL
bcc


@<TRIPOS>ATOM
      1 C4           0.0000     0.0000     0.0000 ca         1 0J8       0.622300
      2 C5           1.4170     0.0000     0.0000 ca         1 0J8      -0.336600
      3 C6           2.0920     0.0000     1.2450 ca         1 0J8       0.562200
      4 N1           1.3620    -0.0000     2.3520 nb         1 0J8      -0.686000
      5 N3          -0.6360    -0.0000     1.1810 nb         1 0J8      -0.580000
      6 CAP          0.9160    -0.8320    -7.6510 c3         1 0J8      -0.041400
      7 CAN          0.6600    -0.7810    -9.1590 c3         1 0J8       0.152800
      8 NAW          0.4690     0.6120    -9.5780 n7         1 0J8      -0.581200
      9 CAO          1.6700     1.4150    -9.3150 c3         1 0J8       0.152800
     10 CAQ          1.9560     1.4300    -7.8110 c3         1 0J8      -0.041400
     11 CBG          2.1610    -0.0070    -7.3210 c3         1 0J8      -0.045000
     12 NBI          2.3770    -0.0030    -5.8720 na         1 0J8       0.516400
     13 CAM          1.4140    -0.0050    -4.9280 cc         1 0J8      -0.229300
     14 NAT          3.6200    -0.0030    -5.2270 nc         1 0J8      -0.643800
     15 CAJ          3.4180     0.0000    -3.9360 cd         1 0J8       0.407200
     16 CBA          2.0280    -0.0010    -3.7100 cd         1 0J8      -0.284300
     17 CAZ          1.3530    -0.0000    -2.3880 ca         1 0J8      -0.082300
     18 CAL          2.1050    -0.0010    -1.2180 ca         1 0J8      -0.062000
     19 CAI         -0.0450    -0.0060    -2.3090 ca         1 0J8       0.432200
     20 NAS         -0.6680    -0.0060    -1.1530 nb         1 0J8      -0.534000
     21 C2           0.0400    -0.0010     2.3050 ca         1 0J8       0.550300
     22 CBJ         -0.7260    -0.0020     3.6040 c3         1 0J8       0.548600
     23 FAD         -1.2570     1.2720     3.8320 f          1 0J8      -0.200633
     24 FAE         -1.7660    -0.9340     3.5320 f          1 0J8      -0.200633
     25 FAC          0.1350    -0.3440     4.6510 f          1 0J8      -0.200633
     26 NAX          3.4690    -0.0000     1.3040 nu         1 0J8      -0.476900
     27 CAR          4.1460    -0.0010     2.6030 c3         1 0J8       0.223100
     28 CAY          5.6380    -0.0010     2.3930 ca         1 0J8      -0.149300
     29 CAK          6.3220    -1.1980     2.2900 ca         1 0J8       0.005000
     30 CAG          6.3220     1.1970     2.2950 ca         1 0J8      -0.024000
     31 CAF          7.6910     1.1960     2.1010 ca         1 0J8      -0.119000
     32 CAH          8.3760    -0.0010     2.0050 ca         1 0J8       0.000000
     33 CBB          7.6900    -1.1980     2.0960 ca         1 0J8      -0.450200
     34 NBH          8.4220    -2.4800     1.9870 no         1 0J8       1.046200
     35 OAB          9.6270    -2.4800     1.8150 o          1 0J8      -0.445500
     36 OAA          7.8180    -3.5350     2.0670 o          1 0J8      -0.445500
     37 H2           0.0620    -0.4220    -7.1270 hc         1 0J8       0.031950
     38 H3          -0.2310    -1.3520    -9.3920 h1         1 0J8       0.011200
     39 H4           1.5110    -1.2010    -9.6820 h1         1 0J8       0.011200
     40 H5           0.2570     0.6410   -10.5560 hn         1 0J8       0.258800
     41 H7           1.5080     2.4290    -9.6600 h1         1 0J8       0.011200
     42 H8           2.5150     0.9820    -9.8380 h1         1 0J8       0.011200
     43 H9           2.8530     2.0070    -7.6200 hc         1 0J8       0.031950
     44 H10          1.1170     1.8720    -7.2890 hc         1 0J8       0.031950
     45 H11          3.0220    -0.4380    -7.8190 h1         1 0J8       0.058700
     46 H12          0.3450    -0.0070    -5.1060 h4         1 0J8       0.157000
     47 H13          4.1860     0.0020    -3.1720 h4         1 0J8       0.002100
     48 H14          3.1540     0.2690    -1.2480 ha         1 0J8       0.114000
     49 H15         -0.6260    -0.0120    -3.2230 h4         1 0J8      -0.015900
     50 H16          4.0060    -0.0390     0.4600 hn         1 0J8       0.302800
     51 H17          3.8600     0.8830     3.1600 h1         1 0J8       0.039700
     52 H18          3.8600    -0.8860     3.1590 h1         1 0J8       0.039700
     53 H19          5.7850    -2.1370     2.3600 ha         1 0J8       0.139000
     54 H20          5.7870     2.1350     2.3700 ha         1 0J8       0.114000
     55 H21          8.2280     2.1340     2.0270 ha         1 0J8       0.119000
     56 H22          9.4480    -0.0020     1.8530 ha         1 0J8       0.135000
     57 H1           1.0740    -1.8600    -7.3470 hc         1 0J8       0.031950
@<TRIPOS>BOND
     1     1     2 ar  
     2     1     5 ar  
     3     1    20 ar  
     4     2     3 ar  
     5     2    18 ar  
     6     3     4 ar  
     7     3    26 1   
     8     4    21 ar  
     9     5    21 ar  
    10     6     7 1   
    11     6    11 1   
    12     6    37 1   
    13     6    57 1   
    14     7     8 1   
    15     7    38 1   
    16     7    39 1   
    17     8     9 1   
    18     8    40 1   
    19     9    10 1   
    20     9    41 1   
    21     9    42 1   
    22    10    11 1   
    23    10    43 1   
    24    10    44 1   
    25    11    12 1   
    26    11    45 1   
    27    12    13 1   
    28    12    14 1   
    29    13    16 2   
    30    13    46 1   
    31    14    15 2   
    32    15    16 1   
    33    15    47 1   
    34    16    17 1   
    35    17    18 ar  
    36    17    19 ar  
    37    18    48 1   
    38    19    20 ar  
    39    19    49 1   
    40    21    22 1   
    41    22    23 1   
    42    22    24 1   
    43    22    25 1   
    44    26    27 1   
    45    26    50 1   
    46    27    28 1   
    47    27    51 1   
    48    27    52 1   
    49    28    29 ar  
    50    28    30 ar  
    51    29    33 ar  
    52    29    53 1   
    53    30    31 ar  
    54    30    54 1   
    55    31    32 ar  
    56    31    55 1   
    57    32    33 ar  
    58    32    56 1   
    59    33    34 1   
    60    34    35 1   
    61    34    36 1   
@<TRIPOS>SUBSTRUCTURE
     1 0J8         1 TEMP              0 ****  ****    0 ROOT
