@<TRIPOS>MOLECULE
molecule
   57    61     1     0     0
SMALL
bcc


@<TRIPOS>ATOM
      1 C4           0.0000     0.0000     0.0000 ca         1 0J8       0.726300
      2 C5           1.4170     0.0000     0.0000 ca         1 0J8      -0.355600
      3 C6           2.0920     0.0000     1.2450 ca         1 0J8       0.760200
      4 N1           1.3620    -0.0000     2.3520 nb         1 0J8      -0.810000
      5 N3          -0.6360    -0.0000     1.1810 nb         1 0J8      -0.708000
      6 CAP          0.9160    -0.8320    -7.6510 c3         1 0J8      -0.094900
      7 CAN          0.6600    -0.7810    -9.1590 c3         1 0J8       0.160300
      8 NAW          0.4690     0.6120    -9.5780 n7         1 0J8      -0.821200
      9 CAO          1.6700     1.4150    -9.3150 c3         1 0J8       0.160300
     10 CAQ          1.9560     1.4300    -7.8110 c3         1 0J8      -0.094900
     11 CBG          2.1610    -0.0070    -7.3210 c3         1 0J8       0.077000
     12 NBI          2.3770    -0.0030    -5.8720 na         1 0J8       0.083400
     13 CAM          1.4140    -0.0050    -4.9280 cc         1 0J8      -0.086300
     14 NAT          3.6200    -0.0030    -5.2270 nc         1 0J8      -0.503800
     15 CAJ          3.4180     0.0000    -3.9360 cd         1 0J8       0.346200
     16 CBA          2.0280    -0.0010    -3.7100 cd         1 0J8      -0.280300
     17 CAZ          1.3530    -0.0000    -2.3880 ca         1 0J8      -0.112300
     18 CAL          2.1050    -0.0010    -1.2180 ca         1 0J8      -0.070000
     19 CAI         -0.0450    -0.0060    -2.3090 ca         1 0J8       0.470200
     20 NAS         -0.6680    -0.0060    -1.1530 nb         1 0J8      -0.655000
     21 C2           0.0400    -0.0010     2.3050 ca         1 0J8       0.664300
     22 CBJ         -0.7260    -0.0020     3.6040 c3         1 0J8       0.608600
     23 FAD         -1.2570     1.2720     3.8320 f          1 0J8      -0.206967
     24 FAE         -1.7660    -0.9340     3.5320 f          1 0J8      -0.206967
     25 FAC          0.1350    -0.3440     4.6510 f          1 0J8      -0.206967
     26 NAX          3.4690    -0.0000     1.3040 nu         1 0J8      -0.893900
     27 CAR          4.1460    -0.0010     2.6030 c3         1 0J8       0.287100
     28 CAY          5.6380    -0.0010     2.3930 ca         1 0J8      -0.130300
     29 CAK          6.3220    -1.1980     2.2900 ca         1 0J8      -0.056000
     30 CAG          6.3220     1.1970     2.2950 ca         1 0J8      -0.072000
     31 CAF          7.6910     1.1960     2.1010 ca         1 0J8      -0.136000
     32 CAH          8.3760    -0.0010     2.0050 ca         1 0J8      -0.061000
     33 CBB          7.6900    -1.1980     2.0960 ca         1 0J8      -0.158200
     34 NBH          8.4220    -2.4800     1.9870 no         1 0J8       0.293200
     35 OAB          9.6270    -2.4800     1.8150 o          1 0J8      -0.200000
     36 OAA          7.8180    -3.5350     2.0670 o          1 0J8      -0.200000
     37 H2           0.0620    -0.4220    -7.1270 hc         1 0J8       0.062200
     38 H3          -0.2310    -1.3520    -9.3920 h1         1 0J8       0.039450
     39 H4           1.5110    -1.2010    -9.6820 h1         1 0J8       0.039450
     40 H5           0.2570     0.6410   -10.5560 hn         1 0J8       0.361800
     41 H7           1.5080     2.4290    -9.6600 h1         1 0J8       0.039450
     42 H8           2.5150     0.9820    -9.8380 h1         1 0J8       0.039450
     43 H9           2.8530     2.0070    -7.6200 hc         1 0J8       0.062200
     44 H10          1.1170     1.8720    -7.2890 hc         1 0J8       0.062200
     45 H11          3.0220    -0.4380    -7.8190 h1         1 0J8       0.085700
     46 H12          0.3450    -0.0070    -5.1060 h4         1 0J8       0.177000
     47 H13          4.1860     0.0020    -3.1720 h4         1 0J8       0.045100
     48 H14          3.1540     0.2690    -1.2480 ha         1 0J8       0.135000
     49 H15         -0.6260    -0.0120    -3.2230 h4         1 0J8       0.030100
     50 H16          4.0060    -0.0390     0.4600 hn         1 0J8       0.455800
     51 H17          3.8600     0.8830     3.1600 h1         1 0J8       0.072200
     52 H18          3.8600    -0.8860     3.1590 h1         1 0J8       0.072200
     53 H19          5.7850    -2.1370     2.3600 ha         1 0J8       0.173000
     54 H20          5.7870     2.1350     2.3700 ha         1 0J8       0.150000
     55 H21          8.2280     2.1340     2.0270 ha         1 0J8       0.153000
     56 H22          9.4480    -0.0020     1.8530 ha         1 0J8       0.170000
     57 H1           1.0740    -1.8600    -7.3470 hc         1 0J8       0.062200
@<TRIPOS>BOND
     1     9     8 1   
     2     9    10 1   
     3     8     7 1   
     4    10    11 1   
     5     7     6 1   
     6    11     6 1   
     7    11    12 1   
     8    14    12 1   
     9    14    15 2   
    10    12    13 1   
    11    15    16 1   
    12    13    16 2   
    13    16    17 1   
    14    17    19 ar  
    15    17    18 ar  
    16    19    20 ar  
    17    18     2 ar  
    18    20     1 ar  
    19     2     1 ar  
    20     2     3 ar  
    21     1     5 ar  
    22    26     3 1   
    23    26    27 1   
    24     3     4 ar  
    25     5    21 ar  
    26    27    28 1   
    27     4    21 ar  
    28    21    22 1   
    29    24    22 1   
    30    28    30 ar  
    31    28    29 ar  
    32    30    31 ar  
    33    22    23 1   
    34    22    25 1   
    35    29    33 ar  
    36    31    32 ar  
    37    33    32 ar  
    38    33    34 1   
    39    34    36 1   
    40    34    35 1   
    41     6    57 1   
    42     6    37 1   
    43     7    38 1   
    44     7    39 1   
    45     8    40 1   
    46     9    41 1   
    47     9    42 1   
    48    10    43 1   
    49    10    44 1   
    50    11    45 1   
    51    13    46 1   
    52    15    47 1   
    53    18    48 1   
    54    19    49 1   
    55    26    50 1   
    56    27    51 1   
    57    27    52 1   
    58    29    53 1   
    59    30    54 1   
    60    31    55 1   
    61    32    56 1   
@<TRIPOS>SUBSTRUCTURE
     1 0J8         1 TEMP              0 ****  ****    0 ROOT
