@<TRIPOS>MOLECULE
0J8
   57    61     1     0     0
SMALL
bcc


@<TRIPOS>ATOM
      1 C4          -0.1100     0.0650    -0.0350 ca         1 0J8       0.661300
      2 C5           1.3300     0.0490    -0.0070 ca         1 0J8      -0.310600
      3 C6           1.9660    -0.0630     1.3050 ca         1 0J8       0.703200
      4 N1           1.2190    -0.1430     2.4290 nb         1 0J8      -0.751000
      5 N3          -0.8540    -0.0380     1.1380 nb         1 0J8      -0.636000
      6 CAP          3.3370     2.0000    -7.7800 c3         1 0J8      -0.092400
      7 CAN          2.9630     2.4360    -9.1970 c3         1 0J8       0.163800
      8 NAW          2.4850     1.3610   -10.0460 n7         1 0J8      -0.828200
      9 CAO          2.8720     0.0380    -9.6010 c3         1 0J8       0.163800
     10 CAQ          2.4120    -0.2990    -8.1810 c3         1 0J8      -0.092400
     11 CBG          2.3310     0.9510    -7.2900 c3         1 0J8       0.079000
     12 NBI          2.4860     0.6410    -5.8650 na         1 0J8       0.098400
     13 CAM          1.4480     0.7110    -4.9340 cc         1 0J8      -0.114300
     14 NAT          3.6370     0.2380    -5.3030 nc         1 0J8      -0.504800
     15 CAJ          3.3860     0.0400    -3.9870 cd         1 0J8       0.311200
     16 CBA          1.9940     0.3280    -3.6900 cd         1 0J8      -0.232300
     17 CAZ          1.3370     0.2420    -2.4230 ca         1 0J8      -0.093300
     18 CAL          2.0330     0.1310    -1.2310 ca         1 0J8      -0.072000
     19 CAI         -0.0990     0.2650    -2.3470 ca         1 0J8       0.439200
     20 NAS         -0.8030     0.1810    -1.2360 nb         1 0J8      -0.621000
     21 C2          -0.1500    -0.1410     2.2650 ca         1 0J8       0.617300
     22 CBJ         -0.9400    -0.2600     3.6160 c3         1 0J8       0.617600
     23 FAD         -2.3010    -0.3040     3.5050 f          1 0J8      -0.217967
     24 FAE         -0.6140    -1.3890     4.3190 f          1 0J8      -0.217967
     25 FAC         -0.6900     0.7880     4.4610 f          1 0J8      -0.217967
     26 NAX          3.3590    -0.1620     1.3750 nu         1 0J8      -0.826900
     27 CAR          4.0610    -0.1530     2.6350 c3         1 0J8       0.238100
     28 CAY          4.2960     1.2060     3.2340 ca         1 0J8      -0.138300
     29 CAK          3.6650     1.5600     4.4290 ca         1 0J8      -0.038000
     30 CAG          5.1650     2.1050     2.6080 ca         1 0J8      -0.089000
     31 CAF          5.4090     3.3580     3.1670 ca         1 0J8      -0.140000
     32 CAH          4.7950     3.7280     4.3610 ca         1 0J8      -0.061000
     33 CBB          3.9280     2.8200     4.9900 ca         1 0J8      -0.175200
     34 NBH          3.2800     3.2010     6.2740 no         1 0J8       0.313200
     35 OAB          3.4320     4.3190     6.6890 o          1 0J8      -0.202500
     36 OAA          2.6320     2.3810     6.8660 o          1 0J8      -0.202500
     37 H2           4.3710     1.5670    -7.7680 hc         1 0J8       0.063450
     38 H3           2.1260     3.1900    -9.1430 h1         1 0J8       0.036950
     39 H4           3.8570     2.9620    -9.6410 h1         1 0J8       0.036950
     40 H5           2.7790     1.5050   -10.9930 hn         1 0J8       0.370800
     41 H7           2.4060    -0.7030   -10.3110 h1         1 0J8       0.036950
     42 H8           3.9920    -0.1100    -9.6480 h1         1 0J8       0.036950
     43 H9           3.1280    -1.0530    -7.7610 hc         1 0J8       0.063450
     44 H10          1.3990    -0.7770    -8.2160 hc         1 0J8       0.063450
     45 H11          1.2920     1.3920    -7.3890 h1         1 0J8       0.073700
     46 H12          0.4390     1.0220    -5.2050 h4         1 0J8       0.182000
     47 H13          4.1580    -0.3010    -3.2970 h4         1 0J8       0.042100
     48 H14          3.1330     0.0980    -1.2590 ha         1 0J8       0.140000
     49 H15         -0.6890     0.3510    -3.2800 h4         1 0J8       0.031100
     50 H16          3.8330     0.3280     0.6440 hn         1 0J8       0.415800
     51 H17          3.5150    -0.8080     3.3740 h1         1 0J8       0.084200
     52 H18          5.0670    -0.6300     2.4340 h1         1 0J8       0.084200
     53 H19          2.9640     0.8620     4.9230 ha         1 0J8       0.186000
     54 H20          5.6670     1.8180     1.6700 ha         1 0J8       0.136000
     55 H21          6.0920     4.0620     2.6670 ha         1 0J8       0.150000
     56 H22          4.9860     4.7190     4.8090 ha         1 0J8       0.173000
     57 H1           3.3330     2.8990    -7.1140 hc         1 0J8       0.063450
@<TRIPOS>BOND
     1     1     2 ar  
     2     1     5 ar  
     3     1    20 ar  
     4     2     3 ar  
     5     2    18 ar  
     6     3     4 ar  
     7     3    26 1   
     8     4    21 ar  
     9     5    21 ar  
    10     6     7 1   
    11     6    11 1   
    12     6    37 1   
    13     6    57 1   
    14     7     8 1   
    15     7    38 1   
    16     7    39 1   
    17     8     9 1   
    18     8    40 1   
    19     9    10 1   
    20     9    41 1   
    21     9    42 1   
    22    10    11 1   
    23    10    43 1   
    24    10    44 1   
    25    11    12 1   
    26    11    45 1   
    27    12    13 1   
    28    12    14 1   
    29    13    16 2   
    30    13    46 1   
    31    14    15 2   
    32    15    16 1   
    33    15    47 1   
    34    16    17 1   
    35    17    18 ar  
    36    17    19 ar  
    37    18    48 1   
    38    19    20 ar  
    39    19    49 1   
    40    21    22 1   
    41    22    23 1   
    42    22    24 1   
    43    22    25 1   
    44    26    27 1   
    45    26    50 1   
    46    27    28 1   
    47    27    51 1   
    48    27    52 1   
    49    28    29 ar  
    50    28    30 ar  
    51    29    33 ar  
    52    29    53 1   
    53    30    31 ar  
    54    30    54 1   
    55    31    32 ar  
    56    31    55 1   
    57    32    33 ar  
    58    32    56 1   
    59    33    34 1   
    60    34    35 1   
    61    34    36 1   
@<TRIPOS>SUBSTRUCTURE
     1 0J8         1 TEMP              0 ****  ****    0 ROOT
