@<TRIPOS>MOLECULE
molecule
   43    46     1     0     0
SMALL
bcc


@<TRIPOS>ATOM
      1 N1           0.0000     0.0000     0.0000 nb         1 0J9      -0.799000
      2 C2           1.3210     0.0000     0.0000 ca         1 0J9       0.727900
      3 N3           2.0320     0.0000     1.1050 nb         1 0J9      -0.778000
      4 C4           1.4350     0.0030     2.2970 ca         1 0J9       0.514800
      5 C5           0.0290     0.0040     2.3480 ca         1 0J9      -0.494500
      6 C6          -0.6860     0.0020     1.1390 ca         1 0J9       0.788200
      7 CAA          3.9770     1.2510     3.4480 c3         1 0J9      -0.100100
      8 CAB          3.9750    -1.2470     3.4520 c3         1 0J9      -0.100100
      9 CAC          3.3670     0.0060     5.5270 c3         1 0J9      -0.100100
     10 NAD         -2.0680     0.0030     1.1340 nv         1 0J9      -1.077500
     11 CAE         -2.9560     2.9750     6.9980 ca         1 0J9      -0.124000
     12 CAF         -1.6520     2.9810     6.5070 ca         1 0J9      -0.126000
     13 CAI         -2.6140    -0.9700     3.9440 ca         1 0J9      -0.094000
     14 CAJ         -3.8400     2.0100     6.6250 ca         1 0J9      -0.118000
     15 CAK         -4.3220    -0.0090     5.3260 ca         1 0J9      -0.107000
     16 CAL         -1.2280     2.0240     5.6360 ca         1 0J9      -0.110000
     17 NAO          0.7810     0.0060     4.4570 nc         1 0J9      -0.487100
     18 CAQ         -1.7080     0.0080     4.3180 ca         1 0J9      -0.081900
     19 CAR         -0.3360     0.0060     3.7650 cd         1 0J9       0.445500
     20 CAS         -3.4350     1.0030     5.7310 ca         1 0J9      -0.038000
     21 CAT         -2.1120     1.0170     5.2260 ca         1 0J9      -0.016000
     22 NAW          1.8770     0.0040     3.5870 na         1 0J9      -0.025800
     23 CAX          3.2840     0.0030     3.9990 c3         1 0J9       0.092700
     24 CAG         -3.9050    -0.9750     4.4590 ca         1 0J9      -0.135000
     25 H1           1.8400    -0.0010    -0.9510 h5         1 0J9       0.060100
     26 H2           3.3530     2.1190     3.6250 hc         1 0J9       0.050811
     27 H3           4.1390     1.1340     2.3840 hc         1 0J9       0.050811
     28 H4           4.9300     1.3850     3.9460 hc         1 0J9       0.050811
     29 H5           4.9410    -1.3630     3.9290 hc         1 0J9       0.050811
     30 H6           3.3630    -2.1170     3.6590 hc         1 0J9       0.050811
     31 H7           4.1100    -1.1460     2.3820 hc         1 0J9       0.050811
     32 H8           4.4060    -0.0400     5.8320 hc         1 0J9       0.050811
     33 H9           2.8380    -0.8540     5.9180 hc         1 0J9       0.050811
     34 H10          2.9170     0.9130     5.9110 hc         1 0J9       0.050811
     35 H11         -2.5680     0.8650     1.2290 hn         1 0J9       0.443800
     36 H12         -2.5680    -0.8490     0.9720 hn         1 0J9       0.443800
     37 H13         -3.2690     3.7480     7.6900 ha         1 0J9       0.129000
     38 H14         -0.9670     3.7600     6.8180 ha         1 0J9       0.130000
     39 H15         -2.3090    -1.7500     3.2570 ha         1 0J9       0.135000
     40 H16         -4.8500     2.0170     7.0150 ha         1 0J9       0.132000
     41 H17         -5.3320    -0.0310     5.7150 ha         1 0J9       0.133000
     42 H18         -0.2110     2.0410     5.2620 ha         1 0J9       0.147000
     43 H19         -4.5970    -1.7500     4.1530 ha         1 0J9       0.130000
@<TRIPOS>BOND
     1     1     2 ar  
     2     1     6 ar  
     3    10     6 1   
     4     2     3 ar  
     5     6     5 ar  
     6     3     4 ar  
     7     5     4 ar  
     8     5    19 1   
     9     4    22 1   
    10    13    24 ar  
    11    13    18 ar  
    12    24    15 ar  
    13     7    23 1   
    14    19    18 1   
    15    19    17 2   
    16    15    20 ar  
    17    18    21 ar  
    18    21    20 ar  
    19    21    16 ar  
    20    20    14 ar  
    21    16    12 ar  
    22    14    11 ar  
    23    22    17 1   
    24    22    23 1   
    25    11    12 ar  
    26    23     9 1   
    27    23     8 1   
    28     2    25 1   
    29     7    26 1   
    30     7    27 1   
    31     7    28 1   
    32     8    29 1   
    33     8    30 1   
    34     8    31 1   
    35     9    32 1   
    36     9    33 1   
    37     9    34 1   
    38    10    35 1   
    39    10    36 1   
    40    11    37 1   
    41    12    38 1   
    42    13    39 1   
    43    14    40 1   
    44    15    41 1   
    45    16    42 1   
    46    24    43 1   
@<TRIPOS>SUBSTRUCTURE
     1 0J9         1 TEMP              0 ****  ****    0 ROOT
