@<TRIPOS>MOLECULE
0J9
   43    46     1     0     0
SMALL
bcc


@<TRIPOS>ATOM
      1 N1          -0.0800     0.7070     0.1040 nb         1 0J9      -0.802000
      2 C2           1.2770     0.6150     0.1650 ca         1 0J9       0.692900
      3 N3           2.0880     0.3520     1.2130 nb         1 0J9      -0.745000
      4 C4           1.4030     0.1550     2.3840 ca         1 0J9       0.476800
      5 C5          -0.0480     0.2220     2.4720 ca         1 0J9      -0.501500
      6 C6          -0.7740     0.4970     1.2730 ca         1 0J9       0.763200
      7 CAA          4.0900     0.9490     3.7940 c3         1 0J9      -0.105433
      8 CAB          3.4010    -0.6180     5.5910 c3         1 0J9      -0.105433
      9 CAC          3.8900    -1.4950     3.3210 c3         1 0J9      -0.105433
     10 NAD         -2.1470     0.5120     1.2860 nv         1 0J9      -0.959500
     11 CAE         -3.1730     3.0730     6.8700 ca         1 0J9      -0.124000
     12 CAF         -1.8740     3.1670     6.3140 ca         1 0J9      -0.127000
     13 CAI         -2.4690    -1.1900     4.2310 ca         1 0J9      -0.112000
     14 CAJ         -3.9470     1.9650     6.6290 ca         1 0J9      -0.121000
     15 CAK         -4.2500    -0.2510     5.5670 ca         1 0J9      -0.110000
     16 CAL         -1.3760     2.1540     5.5330 ca         1 0J9      -0.109000
     17 NAO          0.8190    -0.2330     4.5450 nc         1 0J9      -0.496100
     18 CAQ         -1.6730    -0.0860     4.4620 ca         1 0J9      -0.092900
     19 CAR         -0.3400    -0.0300     3.8680 cd         1 0J9       0.411500
     20 CAS         -3.4570     0.9010     5.8230 ca         1 0J9      -0.042000
     21 CAT         -2.1530     0.9910     5.2680 ca         1 0J9      -0.020000
     22 NAW          1.8540    -0.1220     3.6900 na         1 0J9       0.000200
     23 CAX          3.2700    -0.3170     4.0880 c3         1 0J9       0.099700
     24 CAG         -3.7660    -1.2700     4.7870 ca         1 0J9      -0.136000
     25 H1           1.7940     0.7860    -0.8040 h5         1 0J9       0.050100
     26 H2           5.1380     0.7780     4.1420 hc         1 0J9       0.051922
     27 H3           3.6720     1.8280     4.3380 hc         1 0J9       0.051922
     28 H4           4.1150     1.1740     2.7020 hc         1 0J9       0.051922
     29 H5           4.4840    -0.7490     5.8290 hc         1 0J9       0.051922
     30 H6           3.0000     0.2220     6.2060 hc         1 0J9       0.051922
     31 H7           2.8620    -1.5570     5.8610 hc         1 0J9       0.051922
     32 H8           4.9410    -1.6310     3.6720 hc         1 0J9       0.051922
     33 H9           3.9070    -1.3020     2.2230 hc         1 0J9       0.051922
     34 H10          3.3240    -2.4370     3.5160 hc         1 0J9       0.051922
     35 H11         -2.6500     0.8160     0.4900 hn         1 0J9       0.443300
     36 H12         -2.6020     0.4820     2.1660 hn         1 0J9       0.443300
     37 H13         -3.5490     3.8970     7.4940 ha         1 0J9       0.134000
     38 H14         -1.2700     4.0630     6.5190 ha         1 0J9       0.135000
     39 H15         -2.0960    -2.0240     3.6160 ha         1 0J9       0.145000
     40 H16         -4.9580     1.8790     7.0550 ha         1 0J9       0.133000
     41 H17         -5.2570    -0.3070     6.0090 ha         1 0J9       0.135000
     42 H18         -0.3660     2.2260     5.1010 ha         1 0J9       0.146000
     43 H19         -4.3740    -2.1660     4.5880 ha         1 0J9       0.137000
@<TRIPOS>BOND
     1     1     2 ar  
     2     1     6 ar  
     3     2     3 ar  
     4     2    25 1   
     5     3     4 ar  
     6     4     5 ar  
     7     4    22 1   
     8     5     6 ar  
     9     5    19 1   
    10     6    10 1   
    11     7    23 1   
    12     7    26 1   
    13     7    27 1   
    14     7    28 1   
    15     8    23 1   
    16     8    29 1   
    17     8    30 1   
    18     8    31 1   
    19     9    23 1   
    20     9    32 1   
    21     9    33 1   
    22     9    34 1   
    23    10    35 1   
    24    10    36 1   
    25    11    12 ar  
    26    11    14 ar  
    27    11    37 1   
    28    12    16 ar  
    29    12    38 1   
    30    13    18 ar  
    31    13    24 ar  
    32    13    39 1   
    33    14    20 ar  
    34    14    40 1   
    35    15    20 ar  
    36    15    24 ar  
    37    15    41 1   
    38    16    21 ar  
    39    16    42 1   
    40    17    19 2   
    41    17    22 1   
    42    18    19 1   
    43    18    21 ar  
    44    20    21 ar  
    45    22    23 1   
    46    24    43 1   
@<TRIPOS>SUBSTRUCTURE
     1 0J9         1 TEMP              0 ****  ****    0 ROOT
