@<TRIPOS>MOLECULE
molecule
   57    62     1     0     0
SMALL
bcc


@<TRIPOS>ATOM
      1 F1           0.0000     0.0000     0.0000 f          1 0JA      -0.146900
      2 C2           1.3510     0.0000     0.0000 ca         1 0JA       0.088900
      3 C3           2.0420     0.0000     1.1970 ca         1 0JA      -0.136000
      4 C4           3.4250     0.0010     1.1990 ca         1 0JA      -0.122000
      5 C5           4.1230     0.0020    -0.0000 ca         1 0JA       0.118100
      6 O6           5.4820     0.0020     0.0050 os         1 0JA      -0.346400
      7 C7           6.1180    -1.0860     0.5070 ca         1 0JA       0.660600
      8 C8           7.5050    -1.0780     0.6300 ca         1 0JA      -0.253300
      9 C9           8.1460    -2.1720     1.1340 ca         1 0JA      -0.021000
     10 C10          7.3830    -3.2960     1.5240 ca         1 0JA      -0.008900
     11 N11          7.8020    -4.4680     2.0400 nc         1 0JA      -0.625100
     12 C12          6.9120    -5.3540     2.3200 cd         1 0JA       0.446800
     13 N13          7.1800    -6.6030     2.8550 ns         1 0JA      -0.433400
     14 C14          6.1700    -7.4580     3.1110 c          1 0JA       0.691100
     15 O15          5.0260    -7.1330     2.8750 o          1 0JA      -0.578100
     16 C16          6.4620    -8.8170     3.6930 cx         1 0JA      -0.238700
     17 C17          6.0080    -9.0830     5.1300 cx         1 0JA      -0.103400
     18 C18          5.2720    -9.7420     3.9610 cx         1 0JA      -0.103400
     19 S19          5.3060    -4.7540     1.9290 ss         1 0JA      -0.065500
     20 C20          5.9950    -3.2300     1.3710 ca         1 0JA       0.442600
     21 N21          5.4150    -2.1390     0.8780 nb         1 0JA      -0.726000
     22 C22          3.4340     0.0020    -1.2030 ca         1 0JA      -0.115000
     23 C23          2.0460    -0.0050    -1.2050 ca         1 0JA       0.035600
     24 N24          1.3470    -0.0060    -2.4170 ns         1 0JA      -0.465100
     25 C25          1.9260     0.4900    -3.5290 c          1 0JA       0.672700
     26 O26          3.0140     1.0290    -3.4600 o          1 0JA      -0.570100
     27 C27          1.2390     0.3770    -4.8330 ca         1 0JA      -0.142600
     28 C28         -0.0100    -0.2410    -4.9160 ca         1 0JA      -0.092000
     29 C29         -0.6460    -0.3430    -6.1350 ca         1 0JA      -0.134000
     30 C30         -0.0490     0.1660    -7.2760 ca         1 0JA      -0.090000
     31 C31          1.1870     0.7800    -7.2020 ca         1 0JA      -0.057300
     32 C32          1.8330     0.8940    -5.9860 ca         1 0JA       0.087400
     33 Cl3          3.3860     1.6660    -5.8950 cl         1 0JA      -0.033400
     34 C34          1.8300     1.3310    -8.4500 cx         1 0JA      -0.026600
     35 C35          1.0610     1.1820    -9.7640 cx         1 0JA      -0.117900
     36 C36          1.1780     2.5550    -9.0980 cx         1 0JA      -0.117900
     37 C37          3.2970     1.2330    -8.5050 c1         1 0JA       0.255700
     38 N38          4.4310     1.1760    -8.5420 n1         1 0JA      -0.357800
     39 H1           1.5010    -0.0380     2.1350 ha         1 0JA       0.151000
     40 H2           3.9660     0.0010     2.1380 ha         1 0JA       0.149000
     41 H3           8.0800    -0.2520     0.2270 ha         1 0JA       0.159000
     42 H4           9.2250    -2.1710     1.2320 ha         1 0JA       0.156000
     43 H5           8.1010    -6.9890     2.7880 hn         1 0JA       0.342500
     44 H6           7.4080    -9.3040     3.4920 hc         1 0JA       0.092700
     45 H7           6.6350    -9.7580     5.7010 hc         1 0JA       0.088200
     46 H8           5.5060    -8.2590     5.6220 hc         1 0JA       0.088200
     47 H9           4.2990    -9.3380     3.7070 hc         1 0JA       0.088200
     48 H10          5.4690   -10.8010     3.8500 hc         1 0JA       0.088200
     49 H11          3.9790     0.0020    -2.1400 ha         1 0JA       0.191000
     50 H12          0.4240    -0.3890    -2.4590 hn         1 0JA       0.333500
     51 H13         -0.5160    -0.5640    -4.0150 ha         1 0JA       0.135000
     52 H14         -1.6150    -0.8220    -6.2020 ha         1 0JA       0.142000
     53 H15         -0.5510     0.0850    -8.2320 ha         1 0JA       0.144000
     54 H16          1.5560     0.6010   -10.5330 hc         1 0JA       0.095200
     55 H17         -0.0190     1.1590    -9.6750 hc         1 0JA       0.095200
     56 H18          0.4290     3.0580    -8.4990 hc         1 0JA       0.095200
     57 H19          1.8140     3.1230    -9.7660 hc         1 0JA       0.095200
@<TRIPOS>BOND
     1    35    36 1
     2    35    34 1
     3    36    34 1
     4    34    37 1
     5    34    31 1
     6    37    38 3
     7    31    30 ar
     8    31    32 ar
     9    30    29 ar
    10    33    32 1
    11    32    27 ar
    12    29    28 ar
    13    27    28 ar
    14    27    25 1
    15    26    25 2
    16    25    24 1
    17    24    23 1
    18    23    22 ar
    19    23     2 ar
    20    22     5 ar
    21     1     2 1
    22     2     3 ar
    23     8     9 ar
    24     8     7 ar
    25     5     6 1
    26     5     4 ar
    27     6     7 1
    28     9    10 ar
    29     7    21 ar
    30    10    20 ar
    31    10    11 1
    32    21    20 ar
    33    20    19 1
    34    11    12 2
    35    12    19 1
    36    12    13 1
    37     3     4 ar
    38    13    14 1
    39    14    16 1
    40    14    15 2
    41    16    18 1
    42    16    17 1
    43    18    17 1
    44     3    39 1
    45     4    40 1
    46     8    41 1
    47     9    42 1
    48    13    43 1
    49    16    44 1
    50    17    45 1
    51    17    46 1
    52    18    47 1
    53    18    48 1
    54    22    49 1
    55    24    50 1
    56    28    51 1
    57    29    52 1
    58    30    53 1
    59    35    54 1
    60    35    55 1
    61    36    56 1
    62    36    57 1
@<TRIPOS>SUBSTRUCTURE
     1 0JA         1 TEMP              0 ****  ****    0 ROOT
