@<TRIPOS>MOLECULE
0JA
   57    62     1     0     0
SMALL
bcc


@<TRIPOS>ATOM
      1 F1           0.0000     0.0000     0.0000 f          1 0JA      -0.130900
      2 C2           1.3510     0.0000     0.0000 ca         1 0JA       0.055900
      3 C3           2.0420     0.0000     1.1970 ca         1 0JA      -0.094000
      4 C4           3.4250     0.0010     1.1990 ca         1 0JA      -0.105000
      5 C5           4.1230     0.0020    -0.0000 ca         1 0JA       0.128100
      6 O6           5.4820     0.0020     0.0050 os         1 0JA      -0.330400
      7 C7           6.1180    -1.0860     0.5070 ca         1 0JA       0.615600
      8 C8           7.5050    -1.0780     0.6300 ca         1 0JA      -0.232300
      9 C9           8.1460    -2.1720     1.1340 ca         1 0JA       0.009000
     10 C10          7.3830    -3.2960     1.5240 ca         1 0JA      -0.057900
     11 N11          7.8020    -4.4680     2.0400 nc         1 0JA      -0.495100
     12 C12          6.9120    -5.3540     2.3200 cd         1 0JA       0.299800
     13 N13          7.1800    -6.6030     2.8550 ns         1 0JA       0.016600
     14 C14          6.1700    -7.4580     3.1110 c          1 0JA       0.588100
     15 O15          5.0260    -7.1330     2.8750 o          1 0JA      -0.596100
     16 C16          6.4620    -8.8170     3.6930 cx         1 0JA      -0.220700
     17 C17          6.0080    -9.0830     5.1300 cx         1 0JA      -0.044900
     18 C18          5.2720    -9.7420     3.9610 cx         1 0JA      -0.044900
     19 S19          5.3060    -4.7540     1.9290 ss         1 0JA      -0.215500
     20 C20          5.9950    -3.2300     1.3710 ca         1 0JA       0.450600
     21 N21          5.4150    -2.1390     0.8780 nb         1 0JA      -0.592000
     22 C22          3.4340     0.0020    -1.2030 ca         1 0JA      -0.106000
     23 C23          2.0460    -0.0050    -1.2050 ca         1 0JA      -0.098400
     24 N24          1.3470    -0.0060    -2.4170 ns         1 0JA      -0.019100
     25 C25          1.9260     0.4900    -3.5290 c          1 0JA       0.584700
     26 O26          3.0140     1.0290    -3.4600 o          1 0JA      -0.626100
     27 C27          1.2390     0.3770    -4.8330 ca         1 0JA      -0.157600
     28 C28         -0.0100    -0.2410    -4.9160 ca         1 0JA      -0.068000
     29 C29         -0.6460    -0.3430    -6.1350 ca         1 0JA      -0.106000
     30 C30         -0.0490     0.1660    -7.2760 ca         1 0JA      -0.068000
     31 C31          1.1870     0.7800    -7.2020 ca         1 0JA      -0.073300
     32 C32          1.8330     0.8940    -5.9860 ca         1 0JA       0.010400
     33 Cl3          3.3860     1.6660    -5.8950 cl         1 0JA       0.075600
     34 C34          1.8300     1.3310    -8.4500 cx         1 0JA       0.041400
     35 C35          1.0610     1.1820    -9.7640 cx         1 0JA      -0.069900
     36 C36          1.1780     2.5550    -9.0980 cx         1 0JA      -0.069900
     37 C37          3.2970     1.2330    -8.5050 c1         1 0JA       0.233700
     38 N38          4.4310     1.1760    -8.5420 n1         1 0JA      -0.374800
     39 H1           1.5010    -0.0380     2.1350 ha         1 0JA       0.120000
     40 H2           3.9660     0.0010     2.1380 ha         1 0JA       0.118000
     41 H3           8.0800    -0.2520     0.2270 ha         1 0JA       0.130000
     42 H4           9.2250    -2.1710     1.2320 ha         1 0JA       0.118000
     43 H5           8.1010    -6.9890     2.7880 hn         1 0JA       0.176500
     44 H6           7.4080    -9.3040     3.4920 hc         1 0JA       0.066700
     45 H7           6.6350    -9.7580     5.7010 hc         1 0JA       0.053700
     46 H8           5.5060    -8.2590     5.6220 hc         1 0JA       0.053700
     47 H9           4.2990    -9.3380     3.7070 hc         1 0JA       0.053700
     48 H10          5.4690   -10.8010     3.8500 hc         1 0JA       0.053700
     49 H11          3.9790     0.0020    -2.1400 ha         1 0JA       0.170000
     50 H12          0.4240    -0.3890    -2.4590 hn         1 0JA       0.180500
     51 H13         -0.5160    -0.5640    -4.0150 ha         1 0JA       0.107000
     52 H14         -1.6150    -0.8220    -6.2020 ha         1 0JA       0.111000
     53 H15         -0.5510     0.0850    -8.2320 ha         1 0JA       0.117000
     54 H16          1.5560     0.6010   -10.5330 hc         1 0JA       0.063450
     55 H17         -0.0190     1.1590    -9.6750 hc         1 0JA       0.063450
     56 H18          0.4290     3.0580    -8.4990 hc         1 0JA       0.063450
     57 H19          1.8140     3.1230    -9.7660 hc         1 0JA       0.063450
@<TRIPOS>BOND
     1     1     2 1   
     2     2     3 ar  
     3     2    23 ar  
     4     3     4 ar  
     5     3    39 1   
     6     4     5 ar  
     7     4    40 1   
     8     5     6 1   
     9     5    22 ar  
    10     6     7 1   
    11     7     8 ar  
    12     7    21 ar  
    13     8     9 ar  
    14     8    41 1   
    15     9    10 ar  
    16     9    42 1   
    17    10    11 1   
    18    10    20 ar  
    19    11    12 2   
    20    12    13 1   
    21    12    19 1   
    22    13    14 1   
    23    13    43 1   
    24    14    15 2   
    25    14    16 1   
    26    16    17 1   
    27    16    18 1   
    28    16    44 1   
    29    17    18 1   
    30    17    45 1   
    31    17    46 1   
    32    18    47 1   
    33    18    48 1   
    34    19    20 1   
    35    20    21 ar  
    36    22    23 ar  
    37    22    49 1   
    38    23    24 1   
    39    24    25 1   
    40    24    50 1   
    41    25    26 2   
    42    25    27 1   
    43    27    28 ar  
    44    27    32 ar  
    45    28    29 ar  
    46    28    51 1   
    47    29    30 ar  
    48    29    52 1   
    49    30    31 ar  
    50    30    53 1   
    51    31    32 ar  
    52    31    34 1   
    53    32    33 1   
    54    34    35 1   
    55    34    36 1   
    56    34    37 1   
    57    35    36 1   
    58    35    54 1   
    59    35    55 1   
    60    36    56 1   
    61    36    57 1   
    62    37    38 3   
@<TRIPOS>SUBSTRUCTURE
     1 0JA         1 TEMP              0 ****  ****    0 ROOT
