@<TRIPOS>MOLECULE
0JA
   57    62     1     0     0
SMALL
bcc


@<TRIPOS>ATOM
      1 F1           1.4230     0.6200    -0.4010 f          1 0JA      -0.144900
      2 C2           2.7290     0.8040    -0.7260 ca         1 0JA       0.063900
      3 C3           3.6250     1.2080     0.2750 ca         1 0JA      -0.127000
      4 C4           4.9680     1.4090    -0.0210 ca         1 0JA      -0.127000
      5 C5           5.4030     1.1970    -1.3320 ca         1 0JA       0.115100
      6 O6           6.7080     1.5120    -1.7200 os         1 0JA      -0.365400
      7 C7           7.7520     0.7830    -1.1630 ca         1 0JA       0.624600
      8 C8           9.0400     1.2030    -1.6290 ca         1 0JA      -0.244300
      9 C9          10.1580     0.5500    -1.1570 ca         1 0JA      -0.029000
     10 C10          9.9830    -0.5070    -0.2330 ca         1 0JA      -0.031900
     11 N11         10.9870    -1.2750     0.3460 nc         1 0JA      -0.573100
     12 C12         10.4240    -2.1790     1.1700 cd         1 0JA       0.384800
     13 N13         11.1710    -3.1020     1.9000 ns         1 0JA      -0.461400
     14 C14         10.5980    -4.0370     2.7590 c          1 0JA       0.691100
     15 O15          9.3630    -4.0870     2.9110 o          1 0JA      -0.569100
     16 C16         11.5450    -4.9310     3.4900 cx         1 0JA      -0.212700
     17 C17         11.4930    -6.4150     3.2380 cx         1 0JA      -0.111400
     18 C18         12.6780    -5.6210     2.7780 cx         1 0JA      -0.111400
     19 S19          8.6760    -2.1340     1.2730 ss         1 0JA       0.036500
     20 C20          8.6380    -0.8470     0.1690 ca         1 0JA       0.366600
     21 N21          7.5310    -0.2140    -0.2860 nb         1 0JA      -0.673000
     22 C22          4.5400     0.7810    -2.3510 ca         1 0JA      -0.139000
     23 C23          3.1750     0.5840    -2.0700 ca         1 0JA       0.052600
     24 N24          2.2390     0.1880    -3.0360 ns         1 0JA      -0.457100
     25 C25          2.4770    -0.0820    -4.3750 c          1 0JA       0.686700
     26 O26          3.5850     0.0510    -4.9210 o          1 0JA      -0.571100
     27 C27          1.2760    -0.4980    -5.1700 ca         1 0JA      -0.143600
     28 C28          0.9240     0.2990    -6.2630 ca         1 0JA      -0.069000
     29 C29         -0.1670    -0.0480    -7.0560 ca         1 0JA      -0.134000
     30 C30         -0.8990    -1.1970    -6.7680 ca         1 0JA      -0.088000
     31 C31         -0.5490    -2.0180    -5.6880 ca         1 0JA      -0.055300
     32 C32          0.5440    -1.6590    -4.8800 ca         1 0JA       0.054400
     33 Cl3          0.9920    -2.6350    -3.5640 cl         1 0JA      -0.063400
     34 C34         -1.3480    -3.2350    -5.4210 cx         1 0JA      -0.032600
     35 C35         -1.7290    -4.1390    -6.5820 cx         1 0JA      -0.095400
     36 C36         -0.7120    -4.6040    -5.5930 cx         1 0JA      -0.095400
     37 C37         -2.3080    -3.0710    -4.3670 c1         1 0JA       0.246700
     38 N38         -3.0880    -2.9360    -3.5160 n1         1 0JA      -0.358800
     39 H1           3.2490     1.3630     1.2970 ha         1 0JA       0.154000
     40 H2           5.6760     1.7190     0.7600 ha         1 0JA       0.157000
     41 H3           9.1020     2.0290    -2.3490 ha         1 0JA       0.164000
     42 H4          11.1690     0.8360    -1.4870 ha         1 0JA       0.158000
     43 H5          12.1630    -3.0800     1.8030 hn         1 0JA       0.342500
     44 H6          11.6980    -4.5690     4.5270 hc         1 0JA       0.116700
     45 H7          10.7790    -6.8040     2.4900 hc         1 0JA       0.083950
     46 H8          11.5960    -7.0960     4.1020 hc         1 0JA       0.083950
     47 H9          13.6410    -5.7290     3.3090 hc         1 0JA       0.083950
     48 H10         12.8230    -5.4550     1.6960 hc         1 0JA       0.083950
     49 H11          4.9470     0.6250    -3.3650 ha         1 0JA       0.193000
     50 H12          1.3160     0.0220    -2.6920 hn         1 0JA       0.336500
     51 H13          1.5220     1.1960    -6.4930 ha         1 0JA       0.158000
     52 H14         -0.4490     0.5850    -7.9110 ha         1 0JA       0.147000
     53 H15         -1.7630    -1.4720    -7.3940 ha         1 0JA       0.147000
     54 H16         -1.4030    -3.8450    -7.5960 hc         1 0JA       0.087450
     55 H17         -2.7340    -4.6000    -6.5830 hc         1 0JA       0.087450
     56 H18         -0.9770    -5.4020    -4.8760 hc         1 0JA       0.087450
     57 H19          0.3530    -4.6450    -5.8880 hc         1 0JA       0.087450
@<TRIPOS>BOND
     1     1     2 1   
     2     2     3 ar  
     3     2    23 ar  
     4     3     4 ar  
     5     3    39 1   
     6     4     5 ar  
     7     4    40 1   
     8     5     6 1   
     9     5    22 ar  
    10     6     7 1   
    11     7     8 ar  
    12     7    21 ar  
    13     8     9 ar  
    14     8    41 1   
    15     9    10 ar  
    16     9    42 1   
    17    10    11 1   
    18    10    20 ar  
    19    11    12 2   
    20    12    13 1   
    21    12    19 1   
    22    13    14 1   
    23    13    43 1   
    24    14    15 2   
    25    14    16 1   
    26    16    17 1   
    27    16    18 1   
    28    16    44 1   
    29    17    18 1   
    30    17    45 1   
    31    17    46 1   
    32    18    47 1   
    33    18    48 1   
    34    19    20 1   
    35    20    21 ar  
    36    22    23 ar  
    37    22    49 1   
    38    23    24 1   
    39    24    25 1   
    40    24    50 1   
    41    25    26 2   
    42    25    27 1   
    43    27    28 ar  
    44    27    32 ar  
    45    28    29 ar  
    46    28    51 1   
    47    29    30 ar  
    48    29    52 1   
    49    30    31 ar  
    50    30    53 1   
    51    31    32 ar  
    52    31    34 1   
    53    32    33 1   
    54    34    35 1   
    55    34    36 1   
    56    34    37 1   
    57    35    36 1   
    58    35    54 1   
    59    35    55 1   
    60    36    56 1   
    61    36    57 1   
    62    37    38 3   
@<TRIPOS>SUBSTRUCTURE
     1 0JA         1 TEMP              0 ****  ****    0 ROOT
