@<TRIPOS>MOLECULE
0JB
   34    37     1     0     0
SMALL
bcc


@<TRIPOS>ATOM
      1 O14          0.1450     0.6590    -0.0520 o          1 0JB      -0.572100
      2 C13          1.2920     0.1810     0.0000 c          1 0JB       0.683700
      3 C15          2.0130     0.0070     1.2890 ca         1 0JB      -0.164600
      4 C20          3.3570     0.3610     1.4600 ca         1 0JB      -0.049200
      5 N21          4.3220     0.9040     0.6060 na         1 0JB      -0.292300
      6 C22          5.4920     1.0560     1.3820 cc         1 0JB       0.424700
      7 N23          5.3570     0.6220     2.6410 nd         1 0JB      -0.555100
      8 C19          4.0200     0.1770     2.7440 ca         1 0JB       0.057400
      9 C18          3.3060    -0.3600     3.8200 ca         1 0JB      -0.039000
     10 C17          1.9700    -0.6890     3.6280 ca         1 0JB      -0.164000
     11 C16          1.3320    -0.5040     2.3930 ca         1 0JB      -0.054000
     12 N12          1.9980    -0.2160    -1.1380 ns         1 0JB      -0.477100
     13 C8           1.5190    -0.1990    -2.4580 ca         1 0JB       0.062600
     14 C7           2.1890    -0.9860    -3.4260 ca         1 0JB      -0.139000
     15 C9           0.4300     0.6000    -2.8690 ca         1 0JB      -0.131000
     16 C10          0.0370     0.6100    -4.2040 ca         1 0JB      -0.106000
     17 C11          0.7010    -0.1570    -5.1570 ca         1 0JB      -0.141000
     18 C6           1.7800    -0.9580    -4.7620 ca         1 0JB      -0.114500
     19 C2           2.4990    -1.7680    -5.7340 cc         1 0JB       0.451000
     20 N3           1.9840    -2.2370    -6.9620 na         1 0JB      -0.180400
     21 N4           2.9430    -2.9470    -7.5710 nc         1 0JB      -0.192800
     22 N5           3.9770    -2.9380    -6.8090 nd         1 0JB      -0.047000
     23 N1           3.7840    -2.2500    -5.6880 nd         1 0JB      -0.374000
     24 H1           4.1600     1.2820    -0.2900 hn         1 0JB       0.313700
     25 H2           6.4110     1.4730     0.9510 h5         1 0JB       0.075800
     26 H4           3.7980    -0.5110     4.7930 ha         1 0JB       0.155000
     27 H5           1.3900    -1.1040     4.4660 ha         1 0JB       0.143000
     28 H6           0.2650    -0.7610     2.2860 ha         1 0JB       0.153000
     29 H7           2.7990    -0.7920    -0.9850 hn         1 0JB       0.323500
     30 H8           3.0420    -1.6230    -3.1370 ha         1 0JB       0.158000
     31 H9          -0.1220     1.2160    -2.1390 ha         1 0JB       0.178000
     32 H10         -0.8140     1.2400    -4.5080 ha         1 0JB       0.144000
     33 H11          0.3800    -0.1160    -6.2070 ha         1 0JB       0.132000
     34 H12          1.0800    -2.1040    -7.3510 hn         1 0JB       0.335700
@<TRIPOS>BOND
     1     1     2 2   
     2     2     3 1   
     3     2    12 1   
     4     3     4 ar  
     5     3    11 ar  
     6     4     5 1   
     7     4     8 ar  
     8     5     6 1   
     9     5    24 1   
    10     6     7 2   
    11     6    25 1   
    12     7     8 1   
    13     8     9 ar  
    14     9    10 ar  
    15     9    26 1   
    16    10    11 ar  
    17    10    27 1   
    18    11    28 1   
    19    12    13 1   
    20    12    29 1   
    21    13    14 ar  
    22    13    15 ar  
    23    14    18 ar  
    24    14    30 1   
    25    15    16 ar  
    26    15    31 1   
    27    16    17 ar  
    28    16    32 1   
    29    17    18 ar  
    30    17    33 1   
    31    18    19 1   
    32    19    20 1   
    33    19    23 2   
    34    20    21 1   
    35    20    34 1   
    36    21    22 2   
    37    22    23 1   
@<TRIPOS>SUBSTRUCTURE
     1 0JB         1 TEMP              0 ****  ****    0 ROOT
