@<TRIPOS>MOLECULE
0JB
   34    37     1     0     0
SMALL
bcc


@<TRIPOS>ATOM
      1 O14          0.0000     0.0000     0.0000 o          1 0JB      -0.663100
      2 C13          1.2170     0.0000     0.0000 c          1 0JB       0.598700
      3 C15          1.9540     0.0000     1.2780 ca         1 0JB      -0.154600
      4 C20          1.2580    -0.0060     2.4940 ca         1 0JB      -0.214200
      5 N21         -0.0750    -0.0070     2.8350 na         1 0JB       0.281700
      6 C22         -0.1480    -0.0130     4.1940 cc         1 0JB       0.246700
      7 N23          1.0480    -0.0160     4.7050 nd         1 0JB      -0.521100
      8 C19          1.9690    -0.0120     3.7060 ca         1 0JB       0.044400
      9 C18          3.3660    -0.0120     3.6850 ca         1 0JB       0.004000
     10 C17          4.0400    -0.0060     2.4820 ca         1 0JB      -0.141000
     11 C16          3.3480    -0.0000     1.2840 ca         1 0JB      -0.063000
     12 N12          1.8900    -0.0060    -1.1670 ns         1 0JB      -0.033100
     13 C8           1.1950    -0.1100    -2.3760 ca         1 0JB      -0.089400
     14 C7          -0.0450     0.4950    -2.5160 ca         1 0JB      -0.054000
     15 C9           1.7490    -0.8140    -3.4380 ca         1 0JB      -0.114000
     16 C10          1.0650    -0.9170    -4.6350 ca         1 0JB      -0.079000
     17 C11         -0.1710    -0.3240    -4.7820 ca         1 0JB      -0.112000
     18 C6          -0.7340     0.3890    -3.7230 ca         1 0JB      -0.123500
     19 C2          -2.0590     1.0310    -3.8810 cc         1 0JB       0.307000
     20 N3          -2.8370     1.0110    -4.9910 na         1 0JB       0.288600
     21 N4          -3.9830     1.7520    -4.6510 nc         1 0JB      -0.400800
     22 N5          -3.8260     2.1450    -3.4330 nd         1 0JB       0.034000
     23 N1          -2.7050     1.7260    -2.9680 nd         1 0JB      -0.384000
     24 H1          -0.8480    -0.0030     2.2000 hn         1 0JB       0.159700
     25 H2          -1.0680    -0.0160     4.7660 h5         1 0JB       0.029800
     26 H4           3.9200    -0.0160     4.6160 ha         1 0JB       0.111000
     27 H5           5.1230    -0.0060     2.4750 ha         1 0JB       0.109000
     28 H6           3.8910     0.0050     0.3470 ha         1 0JB       0.097000
     29 H7           2.8860     0.0940    -1.1700 hn         1 0JB       0.178500
     30 H8          -0.4770     1.0470    -1.6900 ha         1 0JB       0.171000
     31 H9           2.7200    -1.2820    -3.3280 ha         1 0JB       0.109000
     32 H10          1.5010    -1.4690    -5.4590 ha         1 0JB       0.108000
     33 H11         -0.7040    -0.4080    -5.7210 ha         1 0JB       0.095000
     34 H12         -2.6390     0.5650    -5.8640 hn         1 0JB       0.172700
@<TRIPOS>BOND
     1     1     2 2   
     2     2     3 1   
     3     2    12 1   
     4     3     4 ar  
     5     3    11 ar  
     6     4     5 1   
     7     4     8 ar  
     8     5     6 1   
     9     5    24 1   
    10     6     7 2   
    11     6    25 1   
    12     7     8 1   
    13     8     9 ar  
    14     9    10 ar  
    15     9    26 1   
    16    10    11 ar  
    17    10    27 1   
    18    11    28 1   
    19    12    13 1   
    20    12    29 1   
    21    13    14 ar  
    22    13    15 ar  
    23    14    18 ar  
    24    14    30 1   
    25    15    16 ar  
    26    15    31 1   
    27    16    17 ar  
    28    16    32 1   
    29    17    18 ar  
    30    17    33 1   
    31    18    19 1   
    32    19    20 1   
    33    19    23 2   
    34    20    21 1   
    35    20    34 1   
    36    21    22 2   
    37    22    23 1   
@<TRIPOS>SUBSTRUCTURE
     1 0JB         1 TEMP              0 ****  ****    0 ROOT
