@<TRIPOS>MOLECULE
molecule
   34    37     1     0     0
SMALL
bcc


@<TRIPOS>ATOM
      1 O14          0.0000     0.0000     0.0000 o          1 0JB      -0.614100
      2 C13          1.2170     0.0000     0.0000 c          1 0JB       0.685700
      3 C15          1.9540     0.0000     1.2780 ca         1 0JB      -0.154600
      4 C20          1.2580    -0.0060     2.4940 ca         1 0JB      -0.038200
      5 N21         -0.0750    -0.0070     2.8350 na         1 0JB      -0.248300
      6 C22         -0.1480    -0.0130     4.1940 cc         1 0JB       0.434700
      7 N23          1.0480    -0.0160     4.7050 nd         1 0JB      -0.604100
      8 C19          1.9690    -0.0120     3.7060 ca         1 0JB       0.078400
      9 C18          3.3660    -0.0120     3.6850 ca         1 0JB      -0.034000
     10 C17          4.0400    -0.0060     2.4820 ca         1 0JB      -0.163000
     11 C16          3.3480    -0.0000     1.2840 ca         1 0JB      -0.083000
     12 N12          1.8900    -0.0060    -1.1670 ns         1 0JB      -0.474100
     13 C8           1.1950    -0.1100    -2.3760 ca         1 0JB       0.055600
     14 C7          -0.0450     0.4950    -2.5160 ca         1 0JB      -0.076000
     15 C9           1.7490    -0.8140    -3.4380 ca         1 0JB      -0.141000
     16 C10          1.0650    -0.9170    -4.6350 ca         1 0JB      -0.111000
     17 C11         -0.1710    -0.3240    -4.7820 ca         1 0JB      -0.131000
     18 C6          -0.7340     0.3890    -3.7230 ca         1 0JB      -0.128500
     19 C2          -2.0590     1.0310    -3.8810 cd         1 0JB       0.478000
     20 N3          -2.8370     1.0110    -4.9910 na         1 0JB      -0.190400
     21 N4          -3.9830     1.7520    -4.6510 nd         1 0JB      -0.213800
     22 N5          -3.8260     2.1450    -3.4330 nc         1 0JB      -0.005000
     23 N1          -2.7050     1.7260    -2.9680 nc         1 0JB      -0.406000
     24 H1          -0.8480    -0.0030     2.2000 hn         1 0JB       0.331700
     25 H2          -1.0680    -0.0160     4.7660 h5         1 0JB       0.079800
     26 H4           3.9200    -0.0160     4.6160 ha         1 0JB       0.148000
     27 H5           5.1230    -0.0060     2.4750 ha         1 0JB       0.139000
     28 H6           3.8910     0.0050     0.3470 ha         1 0JB       0.124000
     29 H7           2.8860     0.0940    -1.1700 hn         1 0JB       0.331500
     30 H8          -0.4770     1.0470    -1.6900 ha         1 0JB       0.193000
     31 H9           2.7200    -1.2820    -3.3280 ha         1 0JB       0.137000
     32 H10          1.5010    -1.4690    -5.4590 ha         1 0JB       0.139000
     33 H11         -0.7040    -0.4080    -5.7210 ha         1 0JB       0.123000
     34 H12         -2.6390     0.5650    -5.8640 hn         1 0JB       0.337700
@<TRIPOS>BOND
     1     7     6 2   
     2     7     8 1   
     3     6     5 1   
     4     8     9 ar  
     5     8     4 ar  
     6     5     4 1   
     7     9    10 ar  
     8     4     3 ar  
     9    10    11 ar  
    10     3    11 ar  
    11     3     2 1   
    12    23    22 1   
    13    23    19 2   
    14    22    21 2   
    15    12     2 1   
    16    12    13 1   
    17    14    13 ar  
    18    14    18 ar  
    19     2     1 2   
    20    19    18 1   
    21    19    20 1   
    22    13    15 ar  
    23    21    20 1   
    24    18    17 ar  
    25    15    16 ar  
    26    17    16 ar  
    27     5    24 1   
    28     6    25 1   
    29     9    26 1   
    30    10    27 1   
    31    11    28 1   
    32    12    29 1   
    33    14    30 1   
    34    15    31 1   
    35    16    32 1   
    36    17    33 1   
    37    20    34 1   
@<TRIPOS>SUBSTRUCTURE
     1 0JB         1 TEMP              0 ****  ****    0 ROOT
