@<TRIPOS>MOLECULE
0JD
   20    21     1     0     0
SMALL
bcc


@<TRIPOS>ATOM
      1 OAA          0.3510     0.5940    -0.5520 o          1 0JD      -0.812300
      2 CAJ          1.0110    -0.3000     0.0350 c          1 0JD       0.934600
      3 OAB          1.1420    -1.4950    -0.3330 o          1 0JD      -0.812300
      4 CAM          1.7990     0.1530     1.3130 c3         1 0JD      -0.032900
      5 OAI          1.0260    -0.2540     2.4570 os         1 0JD      -0.284900
      6 CAL          1.7340    -0.2450     3.6350 ca         1 0JD       0.086100
      7 CAF          1.0070    -0.3000     4.8320 ca         1 0JD      -0.146000
      8 CAD          1.6880    -0.3120     6.0480 ca         1 0JD      -0.146000
      9 CAC          3.0800    -0.2660     6.0840 ca         1 0JD      -0.162000
     10 CAE          3.8180    -0.2230     4.9020 ca         1 0JD      -0.140000
     11 CAK          3.1460    -0.2180     3.6750 ca         1 0JD       0.061100
     12 OAH          3.9110    -0.1650     2.5280 os         1 0JD      -0.346900
     13 CAG          3.1750    -0.4880     1.3330 c3         1 0JD       0.103400
     14 H2           1.8780     1.2720     1.3410 h1         1 0JD       0.049700
     15 H3          -0.0900    -0.3330     4.7900 ha         1 0JD       0.142000
     16 H4           1.1170    -0.3550     6.9860 ha         1 0JD       0.114000
     17 H5           3.6050    -0.2690     7.0500 ha         1 0JD       0.113000
     18 H6           4.9160    -0.1930     4.9170 ha         1 0JD       0.131000
     19 H7           3.8170    -0.0880     0.5080 h1         1 0JD       0.073700
     20 H8           3.0820    -1.6030     1.2550 h1         1 0JD       0.073700
@<TRIPOS>BOND
     1     1     2 1   
     2     2     3 1   
     3     2     4 1   
     4     4     5 1   
     5     4    13 1   
     6     4    14 1   
     7     5     6 1   
     8     6     7 ar  
     9     6    11 ar  
    10     7     8 ar  
    11     7    15 1   
    12     8     9 ar  
    13     8    16 1   
    14     9    10 ar  
    15     9    17 1   
    16    10    11 ar  
    17    10    18 1   
    18    11    12 1   
    19    12    13 1   
    20    13    19 1   
    21    13    20 1   
@<TRIPOS>SUBSTRUCTURE
     1 0JD         1 TEMP              0 ****  ****    0 ROOT
