@<TRIPOS>MOLECULE
0JD
   20    21     1     0     0
SMALL
bcc


@<TRIPOS>ATOM
      1 OAA          0.0000     0.0000     0.0000 o          1 0JD      -0.874800
      2 CAJ          1.3420     0.0000     0.0000 c          1 0JD       0.977600
      3 OAB          1.9470     0.0010    -1.0460 o          1 0JD      -0.874800
      4 CAM          2.0950     0.0000     1.3050 c3         1 0JD       0.027100
      5 OAI          3.5000    -0.1170     1.0520 os         1 0JD      -0.256900
      6 CAL          4.3330     0.1620     2.0910 ca         1 0JD       0.093100
      7 CAF          5.6520    -0.2660     2.0400 ca         1 0JD      -0.123000
      8 CAD          6.5110     0.0110     3.0850 ca         1 0JD      -0.121000
      9 CAC          6.0600     0.7180     4.1850 ca         1 0JD      -0.138000
     10 CAE          4.7480     1.1470     4.2430 ca         1 0JD      -0.121000
     11 CAK          3.8790     0.8710     3.1970 ca         1 0JD       0.072100
     12 OAH          2.5880     1.2930     3.2710 os         1 0JD      -0.322900
     13 CAG          1.8490     1.3220     2.0460 c3         1 0JD       0.179400
     14 H2           1.7670    -0.8280     1.9220 h1         1 0JD       0.023700
     15 H3           6.0080    -0.8200     1.1790 ha         1 0JD       0.113000
     16 H4           7.5410    -0.3240     3.0430 ha         1 0JD       0.090000
     17 H5           6.7360     0.9340     5.0040 ha         1 0JD       0.090000
     18 H6           4.3970     1.7000     5.1060 ha         1 0JD       0.102000
     19 H7           0.7930     1.4280     2.2600 h1         1 0JD       0.033200
     20 H8           2.1890     2.1500     1.4350 h1         1 0JD       0.033200
@<TRIPOS>BOND
     1     1     2 1   
     2     2     3 1   
     3     2     4 1   
     4     4     5 1   
     5     4    13 1   
     6     4    14 1   
     7     5     6 1   
     8     6     7 ar  
     9     6    11 ar  
    10     7     8 ar  
    11     7    15 1   
    12     8     9 ar  
    13     8    16 1   
    14     9    10 ar  
    15     9    17 1   
    16    10    11 ar  
    17    10    18 1   
    18    11    12 1   
    19    12    13 1   
    20    13    19 1   
    21    13    20 1   
@<TRIPOS>SUBSTRUCTURE
     1 0JD         1 TEMP              0 ****  ****    0 ROOT
