@<TRIPOS>MOLECULE
molecule
   47    49     1     0     0
SMALL
bcc


@<TRIPOS>ATOM
      1 CAZ          0.0000     0.0000     0.0000 c3         1 0JE      -0.092100
      2 CAY          1.5300     0.0000     0.0000 c3         1 0JE       0.134400
      3 OAX          2.0060     0.0000     1.3470 os         1 0JE      -0.316900
      4 CAB          3.3540    -0.0010     1.5250 ca         1 0JE       0.105100
      5 CAC          4.1910     0.0060     0.4280 ca         1 0JE      -0.163000
      6 CAA          3.8830    -0.0010     2.8150 ca         1 0JE       0.130900
      7 FAW          3.0520    -0.0030     3.8820 f          1 0JE      -0.125900
      8 CAD          5.2490    -0.0010     3.0100 ca         1 0JE      -0.139000
      9 CAH          6.1040     0.0000     1.9170 ca         1 0JE      -0.099200
     10 NAG          7.4810    -0.0000     1.7780 na         1 0JE      -0.263300
     11 CAI          5.5780     0.0060     0.6130 ca         1 0JE       0.126400
     12 NAE          6.6290     0.0100    -0.2440 nc         1 0JE      -0.626100
     13 CAF          7.7530     0.0010     0.4350 cd         1 0JE       0.523400
     14 CAJ          9.0990     0.0030    -0.1570 cd         1 0JE      -0.179200
     15 NAK         10.2880    -0.0130     0.5230 na         1 0JE      -0.057600
     16 NAL         11.3220    -0.0060    -0.4210 nc         1 0JE      -0.478800
     17 CAM         10.8010     0.0120    -1.6210 cd         1 0JE       0.332200
     18 CAN          9.4060     0.0120    -1.5080 cc         1 0JE      -0.052700
     19 NAO          8.4880     0.0240    -2.5660 ns         1 0JE      -0.456100
     20 CAP          8.9280     0.0320    -3.8390 c          1 0JE       0.790100
     21 OAR         10.1220     0.0300    -4.0700 o          1 0JE      -0.665100
     22 NAQ          8.0450     0.0440    -4.8570 n          1 0JE      -0.502800
     23 CAU          8.5230     0.0530    -6.2420 c3         1 0JE       0.109500
     24 CAV          8.6860    -1.3860    -6.7360 c3         1 0JE      -0.118100
     25 CAS          6.6060     0.0450    -4.5790 c3         1 0JE       0.109500
     26 CAT          6.1100     1.4890    -4.4700 c3         1 0JE      -0.118100
     27 H1          -0.3610     0.8900     0.5000 hc         1 0JE       0.049700
     28 H2          -0.3610    -0.0120    -1.0210 hc         1 0JE       0.049700
     29 H3          -0.3610    -0.8790     0.5210 hc         1 0JE       0.049700
     30 H4           1.8910     0.8850    -0.5110 h1         1 0JE       0.035700
     31 H5           1.8910    -0.8850    -0.5110 h1         1 0JE       0.035700
     32 H6           3.7780    -0.0870    -0.5690 ha         1 0JE       0.153000
     33 H7           5.6540    -0.0010     4.0150 ha         1 0JE       0.149000
     34 H8           8.1530    -0.0070     2.5200 hn         1 0JE       0.303700
     35 H10         10.3980    -0.0260     1.5180 hn         1 0JE       0.328700
     36 H11         11.3590     0.0200    -2.5500 h4         1 0JE       0.103100
     37 H12          7.5060    -0.0110    -2.3760 hn         1 0JE       0.353500
     38 H13          7.8070     0.5700    -6.8690 h1         1 0JE       0.055450
     39 H14          9.4790     0.5610    -6.2910 h1         1 0JE       0.055450
     40 H15          9.4650    -1.8780    -6.1660 hc         1 0JE       0.043200
     41 H16          8.9550    -1.3800    -7.7850 hc         1 0JE       0.043200
     42 H17          7.7520    -1.9200    -6.6060 hc         1 0JE       0.043200
     43 H18          6.0820    -0.4570    -5.3830 h1         1 0JE       0.055450
     44 H19          6.4180    -0.4730    -3.6460 h1         1 0JE       0.055450
     45 H20          6.8990     2.1120    -4.0690 hc         1 0JE       0.043200
     46 H21          5.8290     1.8490    -5.4530 hc         1 0JE       0.043200
     47 H22          5.2500     1.5260    -3.8130 hc         1 0JE       0.043200
@<TRIPOS>BOND
     1     1     2 1   
     2    15    16 1   
     3    15    14 1   
     4     2     3 1   
     5    16    17 2   
     6    12    11 1   
     7    12    13 2   
     8     5    11 ar  
     9     5     4 ar  
    10     3     4 1   
    11    11     9 ar  
    12    14    13 1   
    13    14    18 2   
    14     4     6 ar  
    15    13    10 1   
    16    17    18 1   
    17    18    19 1   
    18     9    10 1   
    19     9     8 ar  
    20     6     8 ar  
    21     6     7 1   
    22    21    20 2   
    23    19    20 1   
    24    20    22 1   
    25    26    25 1   
    26    24    23 1   
    27    22    25 1   
    28    22    23 1   
    29     1    27 1   
    30     1    28 1   
    31     1    29 1   
    32     2    30 1   
    33     2    31 1   
    34     5    32 1   
    35     8    33 1   
    36    10    34 1   
    37    15    35 1   
    38    17    36 1   
    39    19    37 1   
    40    23    38 1   
    41    23    39 1   
    42    24    40 1   
    43    24    41 1   
    44    24    42 1   
    45    25    43 1   
    46    25    44 1   
    47    26    45 1   
    48    26    46 1   
    49    26    47 1   
@<TRIPOS>SUBSTRUCTURE
     1 0JE         1 TEMP              0 ****  ****    0 ROOT
