@<TRIPOS>MOLECULE
0JE
   48    50     1     0     0
SMALL
bcc


@<TRIPOS>ATOM
      1 CAZ          0.6060     1.7120    -1.1140 c3         1 0JE      -0.103100
      2 CAY          1.8900     0.9710    -0.8250 c3         1 0JE       0.127400
      3 OAX          1.8350     0.6320     0.5730 os         1 0JE      -0.309900
      4 CAB          2.8790    -0.1170     1.0580 ca         1 0JE       0.103100
      5 CAC          4.0100    -0.4700     0.3280 ca         1 0JE      -0.128000
      6 CAA          2.7150    -0.5110     2.4290 ca         1 0JE       0.147900
      7 FAW          1.5980    -0.1440     3.0910 f          1 0JE      -0.105900
      8 CAD          3.6920    -1.2670     3.0860 ca         1 0JE      -0.150000
      9 CAH          4.8260    -1.6230     2.3560 ca         1 0JE      -0.099200
     10 NAG          6.0050    -2.3080     2.7400 na         1 0JE      -0.270300
     11 CAI          4.9920    -1.2330     0.9720 ca         1 0JE       0.078400
     12 NAE          6.2240    -1.7290     0.4880 nc         1 0JE      -0.503100
     13 CAF          6.7710    -2.3880     1.5250 cd         1 0JE       0.416400
     14 CAJ          8.0610    -3.0470     1.5080 cd         1 0JE      -0.117200
     15 NAK          8.5050    -3.8900     0.4900 na         1 0JE       0.042400
     16 NAL          9.7270    -4.3600     0.7150 nd         1 0JE      -0.454800
     17 CAM         10.1520    -3.8610     1.9040 cc         1 0JE       0.329200
     18 CAN          9.1200    -3.0040     2.4600 cc         1 0JE      -0.190700
     19 NAO          9.1250    -2.2910     3.6620 ns         1 0JE      -0.356100
     20 CAP         10.3250    -1.7950     4.1470 c          1 0JE       0.626100
     21 OAR         11.4570    -2.2250     3.9120 o          1 0JE      -0.476100
     22 NAQ         10.2290    -0.6600     5.1870 nx         1 0JE      -0.588200
     23 CAU          9.6490    -1.1510     6.4790 c3         1 0JE       0.124300
     24 CAV         10.0470    -2.5560     6.8780 c3         1 0JE      -0.130100
     25 CAS         11.5460     0.0500     5.3480 c3         1 0JE       0.124300
     26 CAT         12.5940    -0.6550     6.1790 c3         1 0JE      -0.130100
     27 H1           0.5940     2.0100    -2.1900 hc         1 0JE       0.058033
     28 H2           0.5290     2.6270    -0.4780 hc         1 0JE       0.058033
     29 H3          -0.2770     1.0620    -0.9030 hc         1 0JE       0.058033
     30 H4           1.9680     0.0310    -1.4320 h1         1 0JE       0.043700
     31 H5           2.7870     1.6180    -1.0080 h1         1 0JE       0.043700
     32 H6           4.1430    -0.1680    -0.7210 ha         1 0JE       0.172000
     33 H7           3.5500    -1.5650     4.1340 ha         1 0JE       0.162000
     34 H8           5.9470    -3.0990     3.3380 hn         1 0JE       0.290700
     35 H10          8.0150    -4.0960    -0.3570 hn         1 0JE       0.360700
     36 H11         11.1340    -4.0880     2.3280 h4         1 0JE       0.078100
     37 H12          8.2760    -1.8000     3.8650 hn         1 0JE       0.339500
     38 H13          9.9620    -0.4240     7.2840 hx         1 0JE       0.099200
     39 H14          8.5250    -1.1030     6.3750 hx         1 0JE       0.099200
     40 H15          9.6390    -3.3210     6.1720 hc         1 0JE       0.081700
     41 H16         11.1560    -2.6800     6.9330 hc         1 0JE       0.081700
     42 H17          9.6190    -2.7560     7.8940 hc         1 0JE       0.081700
     43 H18         11.9520     0.2180     4.3070 hx         1 0JE       0.099200
     44 H19         11.3040     1.0490     5.8160 hx         1 0JE       0.099200
     45 H20         13.5150    -0.0160     6.1710 hc         1 0JE       0.081700
     46 H21         12.8590    -1.6520     5.7480 hc         1 0JE       0.081700
     47 H22         12.2670    -0.7830     7.2390 hc         1 0JE       0.081700
     48 HAQ1         9.5820     0.0470     4.8120 hn         1 0JE       0.443800
@<TRIPOS>BOND
     1     1     2 1   
     2     1    27 1   
     3     1    28 1   
     4     1    29 1   
     5     2     3 1   
     6     2    30 1   
     7     2    31 1   
     8     3     4 1   
     9     4     5 ar  
    10     4     6 ar  
    11     5    11 ar  
    12     5    32 1   
    13     6     7 1   
    14     6     8 ar  
    15     8     9 ar  
    16     8    33 1   
    17     9    10 1   
    18     9    11 ar  
    19    10    13 1   
    20    10    34 1   
    21    11    12 1   
    22    12    13 2   
    23    13    14 1   
    24    14    15 1   
    25    14    18 2   
    26    15    16 1   
    27    15    35 1   
    28    16    17 2   
    29    17    18 1   
    30    17    36 1   
    31    18    19 1   
    32    19    20 1   
    33    19    37 1   
    34    20    21 2   
    35    20    22 1   
    36    22    23 1   
    37    22    25 1   
    38    22    48 1   
    39    23    24 1   
    40    23    38 1   
    41    23    39 1   
    42    24    40 1   
    43    24    41 1   
    44    24    42 1   
    45    25    26 1   
    46    25    43 1   
    47    25    44 1   
    48    26    45 1   
    49    26    46 1   
    50    26    47 1   
@<TRIPOS>SUBSTRUCTURE
     1 0JE         1 TEMP              0 ****  ****    0 ROOT
