@<TRIPOS>MOLECULE
0JE
   47    49     1     0     0
SMALL
bcc


@<TRIPOS>ATOM
      1 CAZ          0.0000     0.0000     0.0000 c3         1 0JE       0.001900
      2 CAY          1.5300     0.0000     0.0000 c3         1 0JE       0.201400
      3 OAX          2.0060     0.0000     1.3470 os         1 0JE      -0.292900
      4 CAB          3.3540    -0.0010     1.5250 ca         1 0JE       0.125100
      5 CAC          4.1910     0.0060     0.4280 ca         1 0JE      -0.152000
      6 CAA          3.8830    -0.0010     2.8150 ca         1 0JE       0.092900
      7 FAW          3.0520    -0.0030     3.8820 f          1 0JE      -0.118900
      8 CAD          5.2490    -0.0010     3.0100 ca         1 0JE      -0.085000
      9 CAH          6.1040     0.0000     1.9170 ca         1 0JE      -0.286200
     10 NAG          7.4810    -0.0000     1.7780 na         1 0JE       0.264700
     11 CAI          5.5780     0.0060     0.6130 ca         1 0JE       0.107400
     12 NAE          6.6290     0.0100    -0.2440 nc         1 0JE      -0.548100
     13 CAF          7.7530     0.0010     0.4350 cd         1 0JE       0.328400
     14 CAJ          9.0990     0.0030    -0.1570 cd         1 0JE      -0.345200
     15 NAK         10.2880    -0.0130     0.5230 na         1 0JE       0.426400
     16 NAL         11.3220    -0.0060    -0.4210 nd         1 0JE      -0.629800
     17 CAM         10.8010     0.0120    -1.6210 cc         1 0JE       0.379200
     18 CAN          9.4060     0.0120    -1.5080 cc         1 0JE      -0.212700
     19 NAO          8.4880     0.0240    -2.5660 ns         1 0JE      -0.017100
     20 CAP          8.9280     0.0320    -3.8390 c          1 0JE       0.582100
     21 OAR         10.1220     0.0300    -4.0700 o          1 0JE      -0.710100
     22 NAQ          8.0450     0.0440    -4.8570 n          1 0JE      -0.172800
     23 CAU          8.5230     0.0530    -6.2420 c3         1 0JE       0.052500
     24 CAV          8.6860    -1.3860    -6.7360 c3         1 0JE      -0.021600
     25 CAS          6.6060     0.0450    -4.5790 c3         1 0JE       0.052500
     26 CAT          6.1100     1.4890    -4.4700 c3         1 0JE      -0.021600
     27 H1          -0.3610     0.8900     0.5000 hc         1 0JE       0.012700
     28 H2          -0.3610    -0.0120    -1.0210 hc         1 0JE       0.012700
     29 H3          -0.3610    -0.8790     0.5210 hc         1 0JE       0.012700
     30 H4           1.8910     0.8850    -0.5110 h1         1 0JE       0.000700
     31 H5           1.8910    -0.8850    -0.5110 h1         1 0JE       0.000700
     32 H6           3.7780    -0.0870    -0.5690 ha         1 0JE       0.132000
     33 H7           5.6540    -0.0010     4.0150 ha         1 0JE       0.119000
     34 H8           8.1530    -0.0070     2.5200 hn         1 0JE       0.126700
     35 H10         10.3980    -0.0260     1.5180 hn         1 0JE       0.141700
     36 H11         11.3590     0.0200    -2.5500 h4         1 0JE       0.065100
     37 H12          7.5060    -0.0110    -2.3760 hn         1 0JE       0.203500
     38 H13          7.8070     0.5700    -6.8690 h1         1 0JE       0.028200
     39 H14          9.4790     0.5610    -6.2910 h1         1 0JE       0.028200
     40 H15          9.4650    -1.8780    -6.1660 hc         1 0JE       0.010200
     41 H16          8.9550    -1.3800    -7.7850 hc         1 0JE       0.010200
     42 H17          7.7520    -1.9200    -6.6060 hc         1 0JE       0.010200
     43 H18          6.0820    -0.4570    -5.3830 h1         1 0JE       0.028200
     44 H19          6.4180    -0.4730    -3.6460 h1         1 0JE       0.028200
     45 H20          6.8990     2.1120    -4.0690 hc         1 0JE       0.010200
     46 H21          5.8290     1.8490    -5.4530 hc         1 0JE       0.010200
     47 H22          5.2500     1.5260    -3.8130 hc         1 0JE       0.010200
@<TRIPOS>BOND
     1     1     2 1   
     2     1    27 1   
     3     1    28 1   
     4     1    29 1   
     5     2     3 1   
     6     2    30 1   
     7     2    31 1   
     8     3     4 1   
     9     4     5 ar  
    10     4     6 ar  
    11     5    11 ar  
    12     5    32 1   
    13     6     7 1   
    14     6     8 ar  
    15     8     9 ar  
    16     8    33 1   
    17     9    10 1   
    18     9    11 ar  
    19    10    13 1   
    20    10    34 1   
    21    11    12 1   
    22    12    13 2   
    23    13    14 1   
    24    14    15 1   
    25    14    18 2   
    26    15    16 1   
    27    15    35 1   
    28    16    17 2   
    29    17    18 1   
    30    17    36 1   
    31    18    19 1   
    32    19    20 1   
    33    19    37 1   
    34    20    21 2   
    35    20    22 1   
    36    22    23 1   
    37    22    25 1   
    38    23    24 1   
    39    23    38 1   
    40    23    39 1   
    41    24    40 1   
    42    24    41 1   
    43    24    42 1   
    44    25    26 1   
    45    25    43 1   
    46    25    44 1   
    47    26    45 1   
    48    26    46 1   
    49    26    47 1   
@<TRIPOS>SUBSTRUCTURE
     1 0JE         1 TEMP              0 ****  ****    0 ROOT
