@<TRIPOS>MOLECULE
0JF
   69    72     1     0     0
SMALL
bcc


@<TRIPOS>ATOM
      1 C24          0.0000     0.0000     0.0000 c3         1 0JF       0.239700
      2 O2           1.4290     0.0000     0.0000 os         1 0JF      -0.292900
      3 C5           2.0480     0.0000     1.2110 ca         1 0JF       0.182100
      4 C6           1.2920     0.0010     2.3740 ca         1 0JF      -0.266500
      5 C4           3.4350    -0.0060     1.2840 ca         1 0JF       0.023100
      6 O3           4.1770    -0.0110     0.1410 os         1 0JF      -0.307900
      7 C25          4.5250    -1.2870    -0.3990 c3         1 0JF       0.248700
      8 C3           4.0650    -0.0050     2.5220 ca         1 0JF       0.182100
      9 O4           5.4240    -0.0100     2.5950 os         1 0JF      -0.292900
     10 C26          6.0040    -0.0090     3.9000 c3         1 0JF       0.239700
     11 C2           3.3100     0.0020     3.6840 ca         1 0JF      -0.266500
     12 C1           1.9230     0.0010     3.6110 ca         1 0JF       0.079600
     13 N5           1.1600     0.0030     4.7850 nu         1 0JF      -0.291300
     14 C16         -0.0570     0.6640     4.8190 ca         1 0JF       0.727900
     15 N2          -0.8160     0.5620     5.8990 nb         1 0JF      -0.738000
     16 N1          -0.4300     1.3860     3.7720 nb         1 0JF      -0.713000
     17 C15         -1.5860     2.0320     3.7690 ca         1 0JF       0.502200
     18 C14         -2.4110     1.9490     4.8730 ca         1 0JF      -0.434600
     19 C13         -1.9880     1.1840     5.9630 ca         1 0JF       0.573200
     20 N3          -2.7810     1.0770     7.0950 nh         1 0JF      -0.423300
     21 C19         -2.1390     0.2280     8.1080 c3         1 0JF       0.160800
     22 C18         -4.1190     0.5770     6.7540 c3         1 0JF       0.140800
     23 C17         -5.0080     0.6090     8.0000 c3         1 0JF      -0.032400
     24 C21         -4.3810    -0.2620     9.0920 c3         1 0JF      -0.023400
     25 C20         -2.9690     0.2500     9.3930 c3         1 0JF      -0.123700
     26 C22         -3.0470     1.6600     9.9190 c          1 0JF       0.572100
     27 O1          -2.4900     2.5590     9.3260 o          1 0JF      -0.624100
     28 N4          -3.7360     1.9220    11.0470 ns         1 0JF      -0.207900
     29 C23         -3.8110     3.2930    11.5580 c3         1 0JF       0.115300
     30 C7          -4.6320     3.3140    12.8210 ca         1 0JF      -0.134300
     31 C8          -6.0000     3.5050    12.7540 ca         1 0JF      -0.080000
     32 C9          -6.7540     3.5190    13.9120 ca         1 0JF      -0.104500
     33 C10         -6.1420     3.3410    15.1380 ca         1 0JF      -0.080300
     34 C27         -6.9640     3.3570    16.4000 c3         1 0JF       0.062200
     35 C11         -4.7750     3.1500    15.2060 ca         1 0JF      -0.104500
     36 C12         -4.0200     3.1360    14.0480 ca         1 0JF      -0.080000
     37 H1          -0.3610     0.9130     0.4580 h1         1 0JF      -0.002300
     38 H2          -0.3610    -0.8530     0.5620 h1         1 0JF      -0.002300
     39 H3          -0.3610    -0.0600    -1.0200 h1         1 0JF      -0.002300
     40 H4           0.2100     0.0010     2.3180 ha         1 0JF       0.142000
     41 H5           4.1250    -2.0700     0.2350 h1         1 0JF      -0.011300
     42 H6           5.6040    -1.3770    -0.4470 h1         1 0JF      -0.011300
     43 H7           4.1100    -1.3830    -1.3950 h1         1 0JF      -0.011300
     44 H8           7.0830    -0.0420     3.8160 h1         1 0JF      -0.002300
     45 H9           5.7100     0.8910     4.4260 h1         1 0JF      -0.002300
     46 H10          5.6580    -0.8770     4.4490 h1         1 0JF      -0.002300
     47 H11          3.8010     0.0020     4.6500 ha         1 0JF       0.142000
     48 H12          1.4800    -0.4980     5.5910 hn         1 0JF       0.292800
     49 H13         -1.8830     2.6180     2.9070 h4         1 0JF      -0.020900
     50 H14         -3.3620     2.4670     4.8960 ha         1 0JF       0.135000
     51 H15         -2.0760    -0.7880     7.7380 h1         1 0JF       0.034700
     52 H16         -1.1450     0.6050     8.3160 h1         1 0JF       0.034700
     53 H17         -4.5530     1.2060     5.9860 h1         1 0JF       0.018700
     54 H18         -4.0420    -0.4410     6.3940 h1         1 0JF       0.018700
     55 H19         -5.0920     1.6290     8.3560 hc         1 0JF       0.026200
     56 H20         -5.9900     0.2250     7.7510 hc         1 0JF       0.026200
     57 H21         -4.3280    -1.2880     8.7490 hc         1 0JF       0.017700
     58 H22         -4.9850    -0.2060     9.9900 hc         1 0JF       0.017700
     59 H23         -2.5050    -0.3920    10.1320 hc         1 0JF       0.039700
     60 H24         -4.1590     1.1740    11.5600 hn         1 0JF       0.177500
     61 H25         -2.8120     3.6540    11.7720 h1         1 0JF       0.028700
     62 H26         -4.2740     3.9310    10.8150 h1         1 0JF       0.028700
     63 H27         -6.4810     3.6440    11.7930 ha         1 0JF       0.107500
     64 H28         -7.8260     3.6690    13.8580 ha         1 0JF       0.108000
     65 H29         -6.3760     2.9590    17.2190 hc         1 0JF       0.008700
     66 H30         -7.2580     4.3740    16.6270 hc         1 0JF       0.008700
     67 H31         -7.8490     2.7470    16.2620 hc         1 0JF       0.008700
     68 H32         -4.2950     3.0100    16.1670 ha         1 0JF       0.108000
     69 H33         -2.9480     2.9860    14.1020 ha         1 0JF       0.107500
@<TRIPOS>BOND
     1     1     2 1   
     2     1    37 1   
     3     1    38 1   
     4     1    39 1   
     5     2     3 1   
     6     3     4 ar  
     7     3     5 ar  
     8     4    12 ar  
     9     4    40 1   
    10     5     6 1   
    11     5     8 ar  
    12     6     7 1   
    13     7    41 1   
    14     7    42 1   
    15     7    43 1   
    16     8     9 1   
    17     8    11 ar  
    18     9    10 1   
    19    10    44 1   
    20    10    45 1   
    21    10    46 1   
    22    11    12 ar  
    23    11    47 1   
    24    12    13 1   
    25    13    14 1   
    26    13    48 1   
    27    14    15 ar  
    28    14    16 ar  
    29    15    19 ar  
    30    16    17 ar  
    31    17    18 ar  
    32    17    49 1   
    33    18    19 ar  
    34    18    50 1   
    35    19    20 1   
    36    20    21 1   
    37    20    22 1   
    38    21    25 1   
    39    21    51 1   
    40    21    52 1   
    41    22    23 1   
    42    22    53 1   
    43    22    54 1   
    44    23    24 1   
    45    23    55 1   
    46    23    56 1   
    47    24    25 1   
    48    24    57 1   
    49    24    58 1   
    50    25    26 1   
    51    25    59 1   
    52    26    27 2   
    53    26    28 1   
    54    28    29 1   
    55    28    60 1   
    56    29    30 1   
    57    29    61 1   
    58    29    62 1   
    59    30    31 ar  
    60    30    36 ar  
    61    31    32 ar  
    62    31    63 1   
    63    32    33 ar  
    64    32    64 1   
    65    33    34 1   
    66    33    35 ar  
    67    34    65 1   
    68    34    66 1   
    69    34    67 1   
    70    35    36 ar  
    71    35    68 1   
    72    36    69 1   
@<TRIPOS>SUBSTRUCTURE
     1 0JF         1 TEMP              0 ****  ****    0 ROOT
