@<TRIPOS>MOLECULE
molecule
   69    72     1     0     0
SMALL
bcc


@<TRIPOS>ATOM
      1 C24          0.0000     0.0000     0.0000 c3         1 0JF       0.126700
      2 O2           1.4290     0.0000     0.0000 os         1 0JF      -0.311400
      3 C5           2.0480     0.0000     1.2110 ca         1 0JF       0.173100
      4 C6           1.2920     0.0010     2.3740 ca         1 0JF      -0.270500
      5 C4           3.4350    -0.0060     1.2840 ca         1 0JF       0.026100
      6 O3           4.1770    -0.0110     0.1410 os         1 0JF      -0.322900
      7 C25          4.5250    -1.2870    -0.3990 c3         1 0JF       0.133700
      8 C3           4.0650    -0.0050     2.5220 ca         1 0JF       0.173100
      9 O4           5.4240    -0.0100     2.5950 os         1 0JF      -0.311400
     10 C26          6.0040    -0.0090     3.9000 c3         1 0JF       0.126700
     11 C2           3.3100     0.0020     3.6840 ca         1 0JF      -0.270500
     12 C1           1.9230     0.0010     3.6110 ca         1 0JF       0.232600
     13 N5           1.1600     0.0030     4.7850 nu         1 0JF      -0.756300
     14 C16         -0.0570     0.6640     4.8190 ca         1 0JF       0.956900
     15 N2          -0.8160     0.5620     5.8990 nb         1 0JF      -0.845000
     16 N1          -0.4300     1.3860     3.7720 nb         1 0JF      -0.807000
     17 C15         -1.5860     2.0320     3.7690 ca         1 0JF       0.502200
     18 C14         -2.4110     1.9490     4.8730 ca         1 0JF      -0.446600
     19 C13         -1.9880     1.1840     5.9630 ca         1 0JF       0.697200
     20 N3          -2.7810     1.0770     7.0950 nh         1 0JF      -0.670300
     21 C19         -2.1390     0.2280     8.1080 c3         1 0JF       0.194800
     22 C18         -4.1190     0.5770     6.7540 c3         1 0JF       0.170800
     23 C17         -5.0080     0.6090     8.0000 c3         1 0JF      -0.084400
     24 C21         -4.3810    -0.2620     9.0920 c3         1 0JF      -0.078400
     25 C20         -2.9690     0.2500     9.3930 c3         1 0JF      -0.150700
     26 C22         -3.0470     1.6600     9.9190 c          1 0JF       0.658100
     27 O1          -2.4900     2.5590     9.3260 o          1 0JF      -0.580100
     28 N4          -3.7360     1.9220    11.0470 ns         1 0JF      -0.591900
     29 C23         -3.8110     3.2930    11.5580 c3         1 0JF       0.162300
     30 C7          -4.6320     3.3140    12.8210 ca         1 0JF      -0.124300
     31 C8          -6.0000     3.5050    12.7540 ca         1 0JF      -0.109500
     32 C9          -6.7540     3.5190    13.9120 ca         1 0JF      -0.131500
     33 C10         -6.1420     3.3410    15.1380 ca         1 0JF      -0.074300
     34 C27         -6.9640     3.3570    16.4000 c3         1 0JF      -0.049800
     35 C11         -4.7750     3.1500    15.2060 ca         1 0JF      -0.131500
     36 C12         -4.0200     3.1360    14.0480 ca         1 0JF      -0.109500
     37 H1          -0.3610     0.9130     0.4580 h1         1 0JF       0.042033
     38 H2          -0.3610    -0.8530     0.5620 h1         1 0JF       0.042033
     39 H3          -0.3610    -0.0600    -1.0200 h1         1 0JF       0.042033
     40 H4           0.2100     0.0010     2.3180 ha         1 0JF       0.152500
     41 H5           4.1250    -2.0700     0.2350 h1         1 0JF       0.031367
     42 H6           5.6040    -1.3770    -0.4470 h1         1 0JF       0.031367
     43 H7           4.1100    -1.3830    -1.3950 h1         1 0JF       0.031367
     44 H8           7.0830    -0.0420     3.8160 h1         1 0JF       0.042033
     45 H9           5.7100     0.8910     4.4260 h1         1 0JF       0.042033
     46 H10          5.6580    -0.8770     4.4490 h1         1 0JF       0.042033
     47 H11          3.8010     0.0020     4.6500 ha         1 0JF       0.152500
     48 H12          1.4800    -0.4980     5.5910 hn         1 0JF       0.465800
     49 H13         -1.8830     2.6180     2.9070 h4         1 0JF       0.028100
     50 H14         -3.3620     2.4670     4.8960 ha         1 0JF       0.151000
     51 H15         -2.0760    -0.7880     7.7380 h1         1 0JF       0.063200
     52 H16         -1.1450     0.6050     8.3160 h1         1 0JF       0.063200
     53 H17         -4.5530     1.2060     5.9860 h1         1 0JF       0.045200
     54 H18         -4.0420    -0.4410     6.3940 h1         1 0JF       0.045200
     55 H19         -5.0920     1.6290     8.3560 hc         1 0JF       0.058200
     56 H20         -5.9900     0.2250     7.7510 hc         1 0JF       0.058200
     57 H21         -4.3280    -1.2880     8.7490 hc         1 0JF       0.046200
     58 H22         -4.9850    -0.2060     9.9900 hc         1 0JF       0.046200
     59 H23         -2.5050    -0.3920    10.1320 hc         1 0JF       0.068700
     60 H24         -4.1590     1.1740    11.5600 hn         1 0JF       0.314500
     61 H25         -2.8120     3.6540    11.7720 h1         1 0JF       0.058700
     62 H26         -4.2740     3.9310    10.8150 h1         1 0JF       0.058700
     63 H27         -6.4810     3.6440    11.7930 ha         1 0JF       0.134500
     64 H28         -7.8260     3.6690    13.8580 ha         1 0JF       0.133000
     65 H29         -6.3760     2.9590    17.2190 hc         1 0JF       0.045033
     66 H30         -7.2580     4.3740    16.6270 hc         1 0JF       0.045033
     67 H31         -7.8490     2.7470    16.2620 hc         1 0JF       0.045033
     68 H32         -4.2950     3.0100    16.1670 ha         1 0JF       0.133000
     69 H33         -2.9480     2.9860    14.1020 ha         1 0JF       0.134500
@<TRIPOS>BOND
     1    10     9 1
     2     6     7 1
     3     6     5 1
     4     9     8 1
     5     5     8 ar
     6     5     3 ar
     7     8    11 ar
     8     2     3 1
     9     2     1 1
    10     3     4 ar
    11    11    12 ar
    12     4    12 ar
    13    12    13 1
    14    13    14 1
    15    14    15 ar
    16    14    16 ar
    17    15    19 ar
    18    23    22 1
    19    23    24 1
    20    22    20 1
    21    16    17 ar
    22    19    20 1
    23    19    18 ar
    24    24    25 1
    25    20    21 1
    26    17    18 ar
    27    25    21 1
    28    25    26 1
    29    26    28 1
    30    26    27 2
    31    28    29 1
    32    34    33 1
    33    32    33 ar
    34    32    31 ar
    35    33    35 ar
    36    31    30 ar
    37    35    36 ar
    38    30    36 ar
    39    30    29 1
    40     1    37 1
    41     1    38 1
    42     1    39 1
    43     4    40 1
    44     7    41 1
    45     7    42 1
    46     7    43 1
    47    10    44 1
    48    10    45 1
    49    10    46 1
    50    11    47 1
    51    13    48 1
    52    17    49 1
    53    18    50 1
    54    21    51 1
    55    21    52 1
    56    22    53 1
    57    22    54 1
    58    23    55 1
    59    23    56 1
    60    24    57 1
    61    24    58 1
    62    25    59 1
    63    28    60 1
    64    29    61 1
    65    29    62 1
    66    31    63 1
    67    32    64 1
    68    34    65 1
    69    34    66 1
    70    34    67 1
    71    35    68 1
    72    36    69 1
@<TRIPOS>SUBSTRUCTURE
     1 0JF         1 TEMP              0 ****  ****    0 ROOT
