@<TRIPOS>MOLECULE
0JF
   70    73     1     0     0
SMALL
bcc


@<TRIPOS>ATOM
      1 C24         -2.3440    -3.7480     1.1450 c3         1 0JF       0.115700
      2 O2          -2.4240    -2.5110     1.8640 os         1 0JF      -0.366400
      3 C5          -1.2330    -2.1190     2.4640 ca         1 0JF       0.091600
      4 C6          -1.2400    -1.9940     3.8580 ca         1 0JF      -0.182000
      5 C4          -0.1080    -1.7710     1.6960 ca         1 0JF       0.079100
      6 O3          -0.2600    -1.8330     0.3300 os         1 0JF      -0.328900
      7 C25          0.9020    -2.1630    -0.4370 c3         1 0JF       0.117700
      8 C3           1.0500    -1.3140     2.3740 ca         1 0JF       0.091600
      9 O4           2.1280    -0.9980     1.5750 os         1 0JF      -0.366400
     10 C26          3.3330    -0.6250     2.2400 c3         1 0JF       0.115700
     11 C2           1.0550    -1.1920     3.7640 ca         1 0JF      -0.182000
     12 C1          -0.0950    -1.5190     4.5160 ca         1 0JF       0.152600
     13 N5          -0.0760    -1.4350     5.9320 nu         1 0JF      -0.704300
     14 C16         -0.7640    -0.3800     6.5810 ca         1 0JF       0.882900
     15 N2          -1.8190     0.2230     5.9270 nb         1 0JF      -0.814000
     16 N1          -0.3420    -0.0660     7.8700 nb         1 0JF      -0.730000
     17 C15         -1.0450     0.8790     8.5050 ca         1 0JF       0.479200
     18 C14         -2.1390     1.5560     7.9360 ca         1 0JF      -0.394600
     19 C13         -2.5030     1.1880     6.6140 ca         1 0JF       0.647200
     20 N3          -3.6510     1.8210     6.0280 nh         1 0JF      -0.706300
     21 C19         -4.2750     1.1450     4.9110 c3         1 0JF       0.190800
     22 C18         -3.4890     3.2530     5.7890 c3         1 0JF       0.165800
     23 C17         -2.8530     3.6120     4.4470 c3         1 0JF      -0.112400
     24 C21         -3.5500     2.9170     3.2950 c3         1 0JF      -0.074400
     25 C20         -3.6070     1.4130     3.5450 c3         1 0JF      -0.178700
     26 C22         -4.3570     0.7350     2.4310 c          1 0JF       0.556100
     27 O1          -4.8680     1.2410     1.4430 o          1 0JF      -0.422100
     28 N4          -4.4730    -0.7680     2.5310 ny         1 0JF      -0.680800
     29 C23         -5.8590    -1.1660     2.9460 c3         1 0JF       0.178100
     30 C7          -5.9620    -2.6270     3.2120 ca         1 0JF      -0.186300
     31 C8          -6.6310    -3.4620     2.3110 ca         1 0JF      -0.094000
     32 C9          -6.7700    -4.8180     2.5920 ca         1 0JF      -0.128000
     33 C10         -6.2390    -5.3590     3.7710 ca         1 0JF      -0.021300
     34 C27         -6.4050    -6.7970     4.0770 c3         1 0JF      -0.073800
     35 C11         -5.5640    -4.5170     4.6660 ca         1 0JF      -0.128000
     36 C12         -5.4270    -3.1600     4.3910 ca         1 0JF      -0.094000
     37 H1          -2.0510    -4.5720     1.8370 h1         1 0JF       0.056033
     38 H2          -3.3840    -3.8960     0.7610 h1         1 0JF       0.056033
     39 H3          -1.6160    -3.6570     0.3030 h1         1 0JF       0.056033
     40 H4          -2.1370    -2.2870     4.4240 ha         1 0JF       0.153000
     41 H5           1.5220    -1.2450    -0.5810 h1         1 0JF       0.057033
     42 H6           1.4980    -2.9660     0.0560 h1         1 0JF       0.057033
     43 H7           0.4750    -2.5140    -1.4110 h1         1 0JF       0.057033
     44 H8           3.6850    -1.4440     2.9120 h1         1 0JF       0.056033
     45 H9           4.0510    -0.4700     1.3940 h1         1 0JF       0.056033
     46 H10          3.1870     0.3250     2.8110 h1         1 0JF       0.056033
     47 H11          1.9600    -0.8330     4.2790 ha         1 0JF       0.153000
     48 H12          0.8120    -1.6590     6.3420 hn         1 0JF       0.448800
     49 H13         -0.7080     1.1140     9.5340 h4         1 0JF       0.047100
     50 H14         -2.6870     2.3190     8.5010 ha         1 0JF       0.172000
     51 H15         -5.3370     1.5290     4.8670 h1         1 0JF       0.063700
     52 H16         -4.3060     0.0410     5.1250 h1         1 0JF       0.063700
     53 H17         -4.5250     3.6970     5.8390 h1         1 0JF       0.077200
     54 H18         -2.8780     3.6990     6.6230 h1         1 0JF       0.077200
     55 H19         -1.7660     3.3390     4.4530 hc         1 0JF       0.071200
     56 H20         -2.9220     4.7230     4.3040 hc         1 0JF       0.071200
     57 H21         -4.5920     3.3170     3.1800 hc         1 0JF       0.069700
     58 H22         -3.0030     3.1210     2.3370 hc         1 0JF       0.069700
     59 H23         -2.5540     1.0030     3.5470 hc         1 0JF       0.130700
     60 H24         -3.7830    -1.1370     3.2020 hn         1 0JF       0.473800
     61 H25         -6.1110    -0.5820     3.8790 hx         1 0JF       0.103700
     62 H26         -6.5610    -0.8500     2.1190 hx         1 0JF       0.103700
     63 H27         -7.0630    -3.0490     1.3850 ha         1 0JF       0.137000
     64 H28         -7.3050    -5.4710     1.8840 ha         1 0JF       0.155500
     65 H29         -6.4810    -7.4030     3.1410 hc         1 0JF       0.063033
     66 H30         -7.3440    -6.9500     4.6690 hc         1 0JF       0.063033
     67 H31         -5.5460    -7.1810     4.6810 hc         1 0JF       0.063033
     68 H32         -5.1450    -4.9330     5.5960 ha         1 0JF       0.155500
     69 H33         -4.9070    -2.5060     5.1080 ha         1 0JF       0.137000
     70 H42         -4.2530    -1.1980     1.6190 hn         1 0JF       0.473800
@<TRIPOS>BOND
     1     1     2 1   
     2     1    37 1   
     3     1    38 1   
     4     1    39 1   
     5     2     3 1   
     6     3     4 ar  
     7     3     5 ar  
     8     4    12 ar  
     9     4    40 1   
    10     5     6 1   
    11     5     8 ar  
    12     6     7 1   
    13     7    41 1   
    14     7    42 1   
    15     7    43 1   
    16     8     9 1   
    17     8    11 ar  
    18     9    10 1   
    19    10    44 1   
    20    10    45 1   
    21    10    46 1   
    22    11    12 ar  
    23    11    47 1   
    24    12    13 1   
    25    13    14 1   
    26    13    48 1   
    27    14    15 ar  
    28    14    16 ar  
    29    15    19 ar  
    30    16    17 ar  
    31    17    18 ar  
    32    17    49 1   
    33    18    19 ar  
    34    18    50 1   
    35    19    20 1   
    36    20    21 1   
    37    20    22 1   
    38    21    25 1   
    39    21    51 1   
    40    21    52 1   
    41    22    23 1   
    42    22    53 1   
    43    22    54 1   
    44    23    24 1   
    45    23    55 1   
    46    23    56 1   
    47    24    25 1   
    48    24    57 1   
    49    24    58 1   
    50    25    26 1   
    51    25    59 1   
    52    26    27 2   
    53    26    28 1   
    54    28    29 1   
    55    28    60 1   
    56    28    70 1   
    57    29    30 1   
    58    29    61 1   
    59    29    62 1   
    60    30    31 ar  
    61    30    36 ar  
    62    31    32 ar  
    63    31    63 1   
    64    32    33 ar  
    65    32    64 1   
    66    33    34 1   
    67    33    35 ar  
    68    34    65 1   
    69    34    66 1   
    70    34    67 1   
    71    35    36 ar  
    72    35    68 1   
    73    36    69 1   
@<TRIPOS>SUBSTRUCTURE
     1 0JF         1 TEMP              0 ****  ****    0 ROOT
