@<TRIPOS>MOLECULE
molecule
   50    52     1     0     0
SMALL
bcc


@<TRIPOS>ATOM
      1 N01          0.0000     0.0000     0.0000 nv         1 0JG      -1.073500
      2 C02          1.3830     0.0000     0.0000 ca         1 0JG       0.765200
      3 C03          2.1000     0.0000     1.2040 ca         1 0JG      -0.343400
      4 C04          3.5050    -0.0010     1.1530 ca         1 0JG       0.501800
      5 N05          3.9630    -0.0010     2.4460 na         1 0JG      -0.096300
      6 C06          5.3060    -0.0000     2.8170 c2         1 0JG      -0.104100
      7 C07          6.1370    -0.8750     2.2850 c2         1 0JG      -0.128200
      8 C08          7.5900    -0.8750     2.6860 c3         1 0JG       0.179600
      9 O09          8.0190    -2.2160     2.9260 oh         1 0JG      -0.592800
     10 C10          2.9080    -0.0000     3.3210 cc         1 0JG      -0.053300
     11 C11          3.0260    -0.0000     4.8230 c3         1 0JG       0.003800
     12 C12          2.9180    -1.4350     5.3430 c3         1 0JG      -0.036600
     13 C13          2.8970    -1.4230     6.8510 c          1 0JG       0.638100
     14 O14          2.8080    -2.5760     7.5310 os         1 0JG      -0.417900
     15 C15          2.7940    -2.4890     8.9790 c3         1 0JG       0.139700
     16 O16          2.9630    -0.3730     7.4470 o          1 0JG      -0.539000
     17 C17          4.0760    -2.2150     4.8750 c1         1 0JG       0.197700
     18 N18          4.9710    -2.8230     4.5320 n1         1 0JG      -0.320800
     19 C19          1.7420    -0.0010     2.6290 cd         1 0JG      -0.060400
     20 C20          0.3730    -0.0000     3.1970 ca         1 0JG      -0.027800
     21 C21         -0.1070     1.1260     3.8650 ca         1 0JG      -0.113000
     22 C22         -1.3820     1.1200     4.3920 ca         1 0JG      -0.131000
     23 C23         -2.1830     0.0000     4.2600 ca         1 0JG      -0.081300
     24 C24         -3.5750     0.0000     4.8380 c3         1 0JG      -0.048800
     25 C25         -1.7120    -1.1200     3.5990 ca         1 0JG      -0.131000
     26 C26         -0.4400    -1.1250     3.0620 ca         1 0JG      -0.113000
     27 N27          4.0980    -0.0010    -0.0390 nb         1 0JG      -0.765000
     28 C28          3.3860    -0.0010    -1.1450 ca         1 0JG       0.710900
     29 N29          2.0650    -0.0060    -1.1420 nb         1 0JG      -0.785000
     30 H1          -0.5000     0.8590     0.1150 hn         1 0JG       0.441800
     31 H2          -0.5000    -0.8490    -0.1770 hn         1 0JG       0.441800
     32 H3           5.6670     0.7180     3.5430 h4         1 0JG       0.148000
     33 H4           5.7750    -1.5930     1.5600 ha         1 0JG       0.162000
     34 H5           7.7150    -0.2890     3.5890 h1         1 0JG       0.029200
     35 H6           8.1840    -0.4420     1.8900 h1         1 0JG       0.029200
     36 H7           8.9590    -2.2390     2.9890 ho         1 0JG       0.403000
     37 H8           2.2290     0.5990     5.2470 hc         1 0JG       0.083200
     38 H9           3.9840     0.4170     5.1100 hc         1 0JG       0.083200
     39 H10          2.0050    -1.8860     4.9730 hc         1 0JG       0.113700
     40 H11          1.9530    -1.8840     9.2970 h1         1 0JG       0.053033
     41 H12          2.7040    -3.4830     9.4000 h1         1 0JG       0.053033
     42 H13          3.7160    -2.0340     9.3220 h1         1 0JG       0.053033
     43 H14          0.5190     2.0040     3.9690 ha         1 0JG       0.136000
     44 H15         -1.7560     1.9950     4.9110 ha         1 0JG       0.132500
     45 H16         -4.3000    -0.0310     4.0340 hc         1 0JG       0.044033
     46 H17         -3.7020    -0.8680     5.4730 hc         1 0JG       0.044033
     47 H18         -3.7230     0.9000     5.4230 hc         1 0JG       0.044033
     48 H19         -2.3450    -1.9930     3.4970 ha         1 0JG       0.132500
     49 H20         -0.0730    -2.0030     2.5450 ha         1 0JG       0.136000
     50 H21          3.9030    -0.0060    -2.0960 h5         1 0JG       0.061100
@<TRIPOS>BOND
     1     9     8 1   
     2     8     7 1   
     3     7     6 2   
     4     6     5 1   
     5    27    28 ar  
     6    27     4 ar  
     7    28    29 ar  
     8     5     4 1   
     9     5    10 1   
    10     4     3 ar  
    11    29     2 ar  
    12    10    11 1   
    13    10    19 2   
    14     3     2 ar  
    15     3    19 1   
    16    17    18 3   
    17    17    12 1   
    18    12    11 1   
    19    12    13 1   
    20     2     1 1   
    21    14    13 1   
    22    14    15 1   
    23    19    20 1   
    24    13    16 2   
    25    20    26 ar  
    26    20    21 ar  
    27    26    25 ar  
    28    21    22 ar  
    29    25    23 ar  
    30    22    23 ar  
    31    23    24 1   
    32     1    30 1   
    33     1    31 1   
    34     6    32 1   
    35     7    33 1   
    36     8    34 1   
    37     8    35 1   
    38     9    36 1   
    39    11    37 1   
    40    11    38 1   
    41    12    39 1   
    42    15    40 1   
    43    15    41 1   
    44    15    42 1   
    45    21    43 1   
    46    22    44 1   
    47    24    45 1   
    48    24    46 1   
    49    24    47 1   
    50    25    48 1   
    51    26    49 1   
    52    28    50 1   
@<TRIPOS>SUBSTRUCTURE
     1 0JG         1 TEMP              0 ****  ****    0 ROOT
