@<TRIPOS>MOLECULE
0JG
   50    52     1     0     0
SMALL
bcc


@<TRIPOS>ATOM
      1 N01          0.4190     0.4270     0.1730 nv         1 0JG      -0.955500
      2 C02          1.7760     0.2600     0.3200 ca         1 0JG       0.744200
      3 C03          2.3380     0.0060     1.6130 ca         1 0JG      -0.376400
      4 C04          3.7730    -0.2040     1.6790 ca         1 0JG       0.492800
      5 N05          4.1190    -0.4140     3.0240 na         1 0JG      -0.118300
      6 C06          5.3590    -0.8290     3.5280 c2         1 0JG      -0.082100
      7 C07          6.5690    -0.3070     3.2670 c2         1 0JG      -0.189200
      8 C08          6.8860     0.8270     2.3610 c3         1 0JG       0.156600
      9 O09          8.1000     1.4570     2.7340 oh         1 0JG      -0.595800
     10 C10          2.9270    -0.3600     3.7920 cc         1 0JG      -0.082300
     11 C11          2.8880    -0.5890     5.2530 c3         1 0JG      -0.012200
     12 C12          3.7810     0.3630     6.0510 c3         1 0JG      -0.042600
     13 C13          3.7350    -0.0360     7.5130 c          1 0JG       0.629100
     14 O14          4.9720    -0.0230     8.0900 os         1 0JG      -0.433900
     15 C15          5.0380    -0.3720     9.4760 c3         1 0JG       0.123700
     16 O16          2.7650    -0.3750     8.1880 o          1 0JG      -0.513000
     17 C17          3.3770     1.7490     5.9140 c1         1 0JG       0.215700
     18 N18          3.0720     2.8640     5.7960 n1         1 0JG      -0.339800
     19 C19          1.8320    -0.1020     2.9580 cd         1 0JG      -0.014400
     20 C20          0.4470     0.0070     3.3680 ca         1 0JG      -0.055800
     21 C21         -0.4960    -0.9300     2.9170 ca         1 0JG      -0.117000
     22 C22         -1.8270    -0.8370     3.3160 ca         1 0JG      -0.134000
     23 C23         -2.2440     0.1900     4.1700 ca         1 0JG      -0.069300
     24 C24         -3.6550     0.2770     4.6090 c3         1 0JG      -0.056800
     25 C25         -1.3040     1.1260     4.6170 ca         1 0JG      -0.134000
     26 C26          0.0280     1.0360     4.2230 ca         1 0JG      -0.117000
     27 N27          4.5880    -0.1900     0.5780 nb         1 0JG      -0.747000
     28 C28          3.9230     0.0580    -0.5720 ca         1 0JG       0.688900
     29 N29          2.6000     0.2910    -0.7810 nb         1 0JG      -0.794000
     30 H1           0.0560     0.7390    -0.6950 hn         1 0JG       0.440800
     31 H2          -0.1180     0.5770     0.9940 hn         1 0JG       0.440800
     32 H3           5.2620    -1.6840     4.2300 h4         1 0JG       0.139000
     33 H4           7.4490    -0.7680     3.7500 ha         1 0JG       0.148000
     34 H5           6.0530     1.5790     2.3290 h1         1 0JG       0.074200
     35 H6           7.0820     0.4460     1.3180 h1         1 0JG       0.074200
     36 H7           7.9560     1.8750     3.5900 ho         1 0JG       0.395000
     37 H8           3.2130    -1.6430     5.4810 hc         1 0JG       0.086700
     38 H9           1.8230    -0.4780     5.6020 hc         1 0JG       0.086700
     39 H10          4.8530     0.2730     5.6920 hc         1 0JG       0.116700
     40 H11          4.6730    -1.4170     9.6210 h1         1 0JG       0.056700
     41 H12          4.4200     0.3390    10.0750 h1         1 0JG       0.056700
     42 H13          6.1250    -0.2770     9.7170 h1         1 0JG       0.056700
     43 H14         -0.1770    -1.7440     2.2480 ha         1 0JG       0.144500
     44 H15         -2.5560    -1.5810     2.9590 ha         1 0JG       0.137500
     45 H16         -3.7860    -0.2690     5.5780 hc         1 0JG       0.047700
     46 H17         -3.9610     1.3410     4.7640 hc         1 0JG       0.047700
     47 H18         -4.3400    -0.1820     3.8540 hc         1 0JG       0.047700
     48 H19         -1.6200     1.9400     5.2870 ha         1 0JG       0.137500
     49 H20          0.7570     1.7800     4.5800 ha         1 0JG       0.144500
     50 H21          4.5490     0.0800    -1.4900 h5         1 0JG       0.052100
@<TRIPOS>BOND
     1     1     2 1   
     2     1    30 1   
     3     1    31 1   
     4     2     3 ar  
     5     2    29 ar  
     6     3     4 ar  
     7     3    19 1   
     8     4     5 1   
     9     4    27 ar  
    10     5     6 1   
    11     5    10 1   
    12     6     7 2   
    13     6    32 1   
    14     7     8 1   
    15     7    33 1   
    16     8     9 1   
    17     8    34 1   
    18     8    35 1   
    19     9    36 1   
    20    10    11 1   
    21    10    19 2   
    22    11    12 1   
    23    11    37 1   
    24    11    38 1   
    25    12    13 1   
    26    12    17 1   
    27    12    39 1   
    28    13    14 1   
    29    13    16 2   
    30    14    15 1   
    31    15    40 1   
    32    15    41 1   
    33    15    42 1   
    34    17    18 3   
    35    19    20 1   
    36    20    21 ar  
    37    20    26 ar  
    38    21    22 ar  
    39    21    43 1   
    40    22    23 ar  
    41    22    44 1   
    42    23    24 1   
    43    23    25 ar  
    44    24    45 1   
    45    24    46 1   
    46    24    47 1   
    47    25    26 ar  
    48    25    48 1   
    49    26    49 1   
    50    27    28 ar  
    51    28    29 ar  
    52    28    50 1   
@<TRIPOS>SUBSTRUCTURE
     1 0JG         1 TEMP              0 ****  ****    0 ROOT
