@<TRIPOS>MOLECULE
0JG
   50    54     1     0     0
SMALL
bcc


@<TRIPOS>ATOM
      1 N01          0.0000     0.0000     0.0000 nv         1 0JG      -0.043000
      2 C02          1.3830     0.0000     0.0000 c2         1 0JG       0.075000
      3 C03          2.1000     0.0000     1.2040 c2         1 0JG      -0.183000
      4 C04          3.5050    -0.0010     1.1530 c2         1 0JG      -0.166000
      5 N05          3.9630    -0.0010     2.4460 nx         1 0JG       0.537000
      6 C06          5.3060    -0.0000     2.8170 c2         1 0JG      -0.222000
      7 C07          6.1370    -0.8750     2.2850 c2         1 0JG       0.003000
      8 C08          7.5900    -0.8750     2.6860 DU         1 0JG       0.146000
      9 O09          8.0190    -2.2160     2.9260 oh         1 0JG      -0.306000
     10 C10          2.9080    -0.0000     3.3210 c2         1 0JG      -0.264000
     11 C11          3.0260    -0.0000     4.8230 c3         1 0JG      -0.010000
     12 C12          2.9180    -1.4350     5.3430 c3         1 0JG       0.086000
     13 C13          2.8970    -1.4230     6.8510 c2         1 0JG       0.364000
     14 O14          2.8080    -2.5760     7.5310 os         1 0JG      -0.245000
     15 C15          2.7940    -2.4890     8.9790 c3         1 0JG       0.082000
     16 O16          2.9630    -0.3730     7.4470 o          1 0JG      -0.385000
     17 C17          4.0760    -2.2150     4.8750 c1         1 0JG      -0.186000
     18 N18          4.9600    -2.8330     4.5210 n1         1 0JG      -0.005000
     19 C19          1.7420    -0.0010     2.6290 c2         1 0JG      -0.054000
     20 C20          0.3730    -0.0000     3.1970 ca         1 0JG      -0.014000
     21 C21         -0.1070     1.1260     3.8650 ca         1 0JG      -0.090000
     22 C22         -1.3820     1.1200     4.3920 ca         1 0JG      -0.102500
     23 C23         -2.1830     0.0000     4.2600 ca         1 0JG      -0.081000
     24 C24         -3.5750     0.0000     4.8380 c3         1 0JG      -0.062000
     25 C25         -1.7120    -1.1200     3.5990 ca         1 0JG      -0.102500
     26 C26         -0.4400    -1.1250     3.0620 ca         1 0JG      -0.090000
     27 N27          4.0980    -0.0010    -0.0390 n2         1 0JG      -0.091000
     28 C28          3.3860    -0.0010    -1.1450 c2         1 0JG      -0.013000
     29 N29          2.0650    -0.0060    -1.1420 n2         1 0JG      -0.140000
     30 H1          -0.5000    -0.8490    -0.1770 hn         1 0JG       0.078500
     31 H2          -0.5000     0.8590     0.1180 hn         1 0JG       0.078500
     32 H3           4.9260     0.4220     1.8950 DU         1 0JG       0.010000
     33 H4           6.8730    -0.1710     1.9160 DU         1 0JG       0.027000
     34 H5           8.1840    -0.4420     1.8900 ha         1 0JG       0.031500
     35 H6           7.7150    -0.2890     3.5890 ha         1 0JG       0.031500
     36 H7           8.9610    -2.2430     2.9640 ho         1 0JG       0.179000
     37 H8           3.9840     0.4170     5.1100 hc         1 0JG       0.089000
     38 H9           2.2290     0.5990     5.2470 hc         1 0JG       0.089000
     39 H10          2.0050    -1.8860     4.9730 hc         1 0JG       0.105000
     40 H11          3.7150    -2.0330     9.3220 h1         1 0JG       0.043000
     41 H12          1.9530    -1.8850     9.2970 h1         1 0JG       0.043000
     42 H13          2.7050    -3.4830     9.4000 h1         1 0JG       0.043000
     43 H14          0.5190     2.0040     3.9690 ha         1 0JG       0.110000
     44 H15         -1.7560     1.9950     4.9110 ha         1 0JG       0.108000
     45 H16         -3.5220     0.1800     5.9050 hc         1 0JG       0.047667
     46 H17         -4.0420    -0.9600     4.6560 hc         1 0JG       0.047667
     47 H18         -4.1610     0.7810     4.3690 hc         1 0JG       0.047667
     48 H19         -2.3450    -1.9930     3.4970 ha         1 0JG       0.108000
     49 H20         -0.0730    -2.0030     2.5450 ha         1 0JG       0.110000
     50 H21          3.9030    -0.0060    -2.0960 h5         1 0JG       0.136000
@<TRIPOS>BOND
     1     1     2 1   
     2     1    30 1   
     3     1    31 1   
     4     2     3 1   
     5     2    29 1   
     6     3     4 1   
     7     3    19 1   
     8     4     5 1   
     9     4    27 1   
    10     5     6 1   
    11     5    10 1   
    12     5    32 1   
    13     6     7 1   
    14     6    32 1   
    15     7     8 1   
    16     7    33 1   
    17     8     9 1   
    18     8    33 1   
    19     8    34 1   
    20     8    35 1   
    21     9    36 1   
    22    10    11 1   
    23    10    19 1   
    24    11    12 1   
    25    11    37 1   
    26    11    38 1   
    27    12    13 1   
    28    12    17 1   
    29    12    39 1   
    30    13    14 1   
    31    13    16 1   
    32    14    15 1   
    33    15    40 1   
    34    15    41 1   
    35    15    42 1   
    36    17    18 1   
    37    19    20 1   
    38    20    21 1   
    39    20    26 1   
    40    21    22 1   
    41    21    43 1   
    42    22    23 1   
    43    22    44 1   
    44    23    24 1   
    45    23    25 1   
    46    24    45 1   
    47    24    46 1   
    48    24    47 1   
    49    25    26 1   
    50    25    48 1   
    51    26    49 1   
    52    27    28 1   
    53    28    29 1   
    54    28    50 1   
@<TRIPOS>SUBSTRUCTURE
     1 0JG         1 TEMP              0 ****  ****    0 ROOT
