@<TRIPOS>MOLECULE
0JH
   61    63     1     0     0
SMALL
bcc


@<TRIPOS>ATOM
      1 N01          0.0000     0.0000     0.0000 nv         1 0JH      -0.512500
      2 C02          1.3840     0.0000     0.0000 ca         1 0JH       0.594200
      3 C03          2.1010     0.0000     1.2040 ca         1 0JH      -0.401400
      4 C04          3.5060    -0.0000     1.1530 ca         1 0JH       0.314800
      5 N05          3.9620    -0.0010     2.4450 na         1 0JH       0.339900
      6 C06          5.3740    -0.0000     2.8330 c3         1 0JH      -0.064700
      7 C07          5.8650     1.4430     2.9690 c3         1 0JH      -0.058400
      8 C08          7.3400     1.4430     3.3750 c3         1 0JH       0.231400
      9 O09          7.7990     2.7910     3.5030 oh         1 0JH      -0.591800
     10 C10          2.9100    -0.0020     3.3190 cc         1 0JH      -0.267300
     11 C11          3.0300    -0.0010     4.8200 c3         1 0JH       0.065800
     12 C12          2.9200    -1.4360     5.3410 c3         1 0JH       0.034400
     13 C13          2.9040    -1.4240     6.8480 c          1 0JH       0.698100
     14 O14          2.8140    -2.5770     7.5280 os         1 0JH      -0.399900
     15 C15          2.8040    -2.4900     8.9770 c3         1 0JH       0.179800
     16 C16          2.6960    -3.8960     9.5720 c3         1 0JH      -0.028767
     17 C17          4.0990    -1.8320     9.4570 c3         1 0JH      -0.028767
     18 C18          1.6080    -1.6510     9.4290 c3         1 0JH      -0.028767
     19 O19          2.9750    -0.3760     7.4440 o          1 0JH      -0.573000
     20 C20          4.0730    -2.2190     4.8690 c1         1 0JH       0.192700
     21 N21          4.9620    -2.8350     4.5200 n1         1 0JH      -0.364800
     22 C22          1.7440    -0.0010     2.6280 cd         1 0JH      -0.042400
     23 C23          0.3750    -0.0020     3.1980 ca         1 0JH      -0.028800
     24 C24         -0.4440    -1.1200     3.0510 ca         1 0JH      -0.098500
     25 C25         -1.7170    -1.1150     3.5830 ca         1 0JH      -0.102000
     26 C26         -2.1810    -0.0030     4.2640 ca         1 0JH      -0.090300
     27 C27         -3.5720    -0.0040     4.8440 c3         1 0JH       0.063200
     28 C28         -1.3720     1.1090     4.4140 ca         1 0JH      -0.102000
     29 C29         -0.0960     1.1130     3.8910 ca         1 0JH      -0.098500
     30 N30          4.0990     0.0010    -0.0400 nb         1 0JH      -0.692000
     31 C31          3.3860     0.0020    -1.1450 ca         1 0JH       0.695900
     32 N32          2.0650    -0.0050    -1.1410 nb         1 0JH      -0.750000
     33 H1          -0.5000    -0.0980    -0.8610 hn         1 0JH       0.278800
     34 H2          -0.5000     0.1390     0.8560 hn         1 0JH       0.278800
     35 H3           5.9570    -0.5100     2.0750 h1         1 0JH       0.048200
     36 H4           5.4880    -0.5110     3.7810 h1         1 0JH       0.048200
     37 H5           5.7520     1.9550     2.0210 hc         1 0JH       0.035700
     38 H6           5.2820     1.9530     3.7260 hc         1 0JH       0.035700
     39 H7           7.9240     0.9330     2.6180 h1         1 0JH      -0.013300
     40 H8           7.4540     0.9320     4.3240 h1         1 0JH      -0.013300
     41 H9           8.7320     2.7940     3.6370 ho         1 0JH       0.392000
     42 H10          2.2360     0.5990     5.2460 hc         1 0JH       0.048200
     43 H11          3.9890     0.4140     5.1060 hc         1 0JH       0.048200
     44 H12          2.0040    -1.8850     4.9740 hc         1 0JH       0.072700
     45 H13          2.6950    -3.8310    10.6540 hc         1 0JH       0.020700
     46 H14          3.5400    -4.4920     9.2470 hc         1 0JH       0.020700
     47 H15          1.7760    -4.3600     9.2380 hc         1 0JH       0.020700
     48 H16          4.3160    -2.1570    10.4670 hc         1 0JH       0.020700
     49 H17          3.9840    -0.7550     9.4400 hc         1 0JH       0.020700
     50 H18          4.9130    -2.1190     8.8020 hc         1 0JH       0.020700
     51 H19          0.7520    -1.8760     8.8040 hc         1 0JH       0.020700
     52 H20          1.8510    -0.5990     9.3430 hc         1 0JH       0.020700
     53 H21          1.3720    -1.8850    10.4600 hc         1 0JH       0.020700
     54 H22         -0.0820    -1.9910     2.5180 ha         1 0JH       0.114000
     55 H23         -2.3540    -1.9840     3.4690 ha         1 0JH       0.109000
     56 H24         -4.0030    -0.9930     4.7470 hc         1 0JH       0.008700
     57 H25         -4.1860     0.7120     4.3110 hc         1 0JH       0.008700
     58 H26         -3.5270     0.2680     5.8910 hc         1 0JH       0.008700
     59 H27         -1.7390     1.9760     4.9500 ha         1 0JH       0.109000
     60 H28          0.5360     1.9850     4.0080 ha         1 0JH       0.114000
     61 H29          3.9030    -0.0020    -2.0970 h5         1 0JH      -0.006900
@<TRIPOS>BOND
     1     1     2 1   
     2     1    33 1   
     3     1    34 1   
     4     2     3 ar  
     5     2    32 ar  
     6     3     4 ar  
     7     3    22 1   
     8     4     5 1   
     9     4    30 ar  
    10     5     6 1   
    11     5    10 1   
    12     6     7 1   
    13     6    35 1   
    14     6    36 1   
    15     7     8 1   
    16     7    37 1   
    17     7    38 1   
    18     8     9 1   
    19     8    39 1   
    20     8    40 1   
    21     9    41 1   
    22    10    11 1   
    23    10    22 2   
    24    11    12 1   
    25    11    42 1   
    26    11    43 1   
    27    12    13 1   
    28    12    20 1   
    29    12    44 1   
    30    13    14 1   
    31    13    19 2   
    32    14    15 1   
    33    15    16 1   
    34    15    17 1   
    35    15    18 1   
    36    16    45 1   
    37    16    46 1   
    38    16    47 1   
    39    17    48 1   
    40    17    49 1   
    41    17    50 1   
    42    18    51 1   
    43    18    52 1   
    44    18    53 1   
    45    20    21 3   
    46    22    23 1   
    47    23    24 ar  
    48    23    29 ar  
    49    24    25 ar  
    50    24    54 1   
    51    25    26 ar  
    52    25    55 1   
    53    26    27 1   
    54    26    28 ar  
    55    27    56 1   
    56    27    57 1   
    57    27    58 1   
    58    28    29 ar  
    59    28    59 1   
    60    29    60 1   
    61    30    31 ar  
    62    31    32 ar  
    63    31    61 1   
@<TRIPOS>SUBSTRUCTURE
     1 0JH         1 TEMP              0 ****  ****    0 ROOT
