@<TRIPOS>MOLECULE
0JH
   61    63     1     0     0
SMALL
bcc


@<TRIPOS>ATOM
      1 N01         -0.0880    -0.2000     0.5030 nv         1 0JH      -0.951500
      2 C02          1.2660    -0.1510     0.2460 ca         1 0JH       0.737200
      3 C03          2.2040    -0.1300     1.3290 ca         1 0JH      -0.366400
      4 C04          3.6120    -0.1440     0.9770 ca         1 0JH       0.476800
      5 N05          4.3570    -0.1220     2.1620 na         1 0JH      -0.157100
      6 C06          5.7910    -0.0990     2.2200 c3         1 0JH       0.041300
      7 C07          6.4170     1.2740     1.9590 c3         1 0JH      -0.109400
      8 C08          7.8750     1.2700     2.3830 c3         1 0JH       0.129400
      9 O09          7.9010     1.1740     3.8010 oh         1 0JH      -0.619800
     10 C10          3.4560    -0.0470     3.2450 cc         1 0JH      -0.070300
     11 C11          3.8610    -0.0470     4.6690 c3         1 0JH      -0.012200
     12 C12          4.7050     1.1540     5.0990 c3         1 0JH      -0.057600
     13 C13          4.9710     1.0680     6.5910 c          1 0JH       0.647100
     14 O14          5.6300    -0.0820     6.9040 os         1 0JH      -0.444900
     15 C15          6.0120    -0.3660     8.2760 c3         1 0JH       0.173800
     16 C16          6.9760     0.6890     8.7920 c3         1 0JH      -0.113433
     17 C17          6.7130    -1.7190     8.1620 c3         1 0JH      -0.113433
     18 C18          4.7820    -0.4800     9.1610 c3         1 0JH      -0.113433
     19 O19          4.6750     1.8860     7.4600 o          1 0JH      -0.525000
     20 C20          4.0800     2.4200     4.7700 c1         1 0JH       0.221700
     21 N21          3.6020     3.4440     4.4970 n1         1 0JH      -0.347800
     22 C22          2.1350    -0.0750     2.7660 cd         1 0JH      -0.033400
     23 C23          0.9300    -0.0870     3.5700 ca         1 0JH      -0.047800
     24 C24          0.6140     0.9900     4.4100 ca         1 0JH      -0.119000
     25 C25         -0.5440     0.9650     5.1840 ca         1 0JH      -0.135000
     26 C26         -1.4070    -0.1360     5.1370 ca         1 0JH      -0.073300
     27 C27         -2.6270    -0.1670     5.9750 c3         1 0JH      -0.055800
     28 C28         -1.0930    -1.2110     4.2980 ca         1 0JH      -0.135000
     29 C29          0.0620    -1.1890     3.5210 ca         1 0JH      -0.119000
     30 N30          4.0700    -0.1820    -0.3180 nb         1 0JH      -0.746000
     31 C31          3.0750    -0.1950    -1.2280 ca         1 0JH       0.682900
     32 N32          1.7250    -0.1730    -1.0480 nb         1 0JH      -0.796000
     33 H1          -0.3820     0.0360     1.4210 hn         1 0JH       0.435300
     34 H2          -0.7250    -0.0470    -0.2420 hn         1 0JH       0.435300
     35 H3           6.1830    -0.8250     1.4490 h1         1 0JH       0.072700
     36 H4           6.1090    -0.4630     3.2400 h1         1 0JH       0.072700
     37 H5           5.8720     2.0740     2.5260 hc         1 0JH       0.071200
     38 H6           6.3540     1.5200     0.8670 hc         1 0JH       0.071200
     39 H7           8.3730     2.2210     2.0550 h1         1 0JH       0.031200
     40 H8           8.4210     0.3970     1.9360 h1         1 0JH       0.031200
     41 H9           8.8240     1.2410     4.0700 ho         1 0JH       0.408000
     42 H10          4.4530    -0.9770     4.9010 hc         1 0JH       0.084200
     43 H11          2.9210    -0.0760     5.2880 hc         1 0JH       0.084200
     44 H12          5.7170     1.1160     4.5820 hc         1 0JH       0.137700
     45 H13          7.8150     0.8280     8.0690 hc         1 0JH       0.052367
     46 H14          6.4520     1.6660     8.9280 hc         1 0JH       0.052367
     47 H15          7.3920     0.3610     9.7740 hc         1 0JH       0.052367
     48 H16          7.5930    -1.6390     7.4810 hc         1 0JH       0.052367
     49 H17          7.0570    -2.0370     9.1740 hc         1 0JH       0.052367
     50 H18          6.0110    -2.4830     7.7530 hc         1 0JH       0.052367
     51 H19          4.0450    -1.1840     8.7060 hc         1 0JH       0.052367
     52 H20          5.0820    -0.8680    10.1630 hc         1 0JH       0.052367
     53 H21          4.2970     0.5180     9.2890 hc         1 0JH       0.052367
     54 H22          1.2830     1.8630     4.4530 ha         1 0JH       0.145500
     55 H23         -0.7810     1.8180     5.8370 ha         1 0JH       0.136000
     56 H24         -3.0370     0.8620     6.1250 hc         1 0JH       0.046033
     57 H25         -2.3880    -0.5970     6.9810 hc         1 0JH       0.046033
     58 H26         -3.4210    -0.7990     5.5050 hc         1 0JH       0.046033
     59 H27         -1.7640    -2.0830     4.2530 ha         1 0JH       0.136000
     60 H28          0.3020    -2.0410     2.8670 ha         1 0JH       0.145500
     61 H29          3.3980    -0.2210    -2.2910 h5         1 0JH       0.048100
@<TRIPOS>BOND
     1     1     2 1   
     2     1    33 1   
     3     1    34 1   
     4     2     3 ar  
     5     2    32 ar  
     6     3     4 ar  
     7     3    22 1   
     8     4     5 1   
     9     4    30 ar  
    10     5     6 1   
    11     5    10 1   
    12     6     7 1   
    13     6    35 1   
    14     6    36 1   
    15     7     8 1   
    16     7    37 1   
    17     7    38 1   
    18     8     9 1   
    19     8    39 1   
    20     8    40 1   
    21     9    41 1   
    22    10    11 1   
    23    10    22 2   
    24    11    12 1   
    25    11    42 1   
    26    11    43 1   
    27    12    13 1   
    28    12    20 1   
    29    12    44 1   
    30    13    14 1   
    31    13    19 2   
    32    14    15 1   
    33    15    16 1   
    34    15    17 1   
    35    15    18 1   
    36    16    45 1   
    37    16    46 1   
    38    16    47 1   
    39    17    48 1   
    40    17    49 1   
    41    17    50 1   
    42    18    51 1   
    43    18    52 1   
    44    18    53 1   
    45    20    21 3   
    46    22    23 1   
    47    23    24 ar  
    48    23    29 ar  
    49    24    25 ar  
    50    24    54 1   
    51    25    26 ar  
    52    25    55 1   
    53    26    27 1   
    54    26    28 ar  
    55    27    56 1   
    56    27    57 1   
    57    27    58 1   
    58    28    29 ar  
    59    28    59 1   
    60    29    60 1   
    61    30    31 ar  
    62    31    32 ar  
    63    31    61 1   
@<TRIPOS>SUBSTRUCTURE
     1 0JH         1 TEMP              0 ****  ****    0 ROOT
