@<TRIPOS>MOLECULE
0JJ
   45    49     1     0     0
SMALL
bcc


@<TRIPOS>ATOM
      1 C7          -0.2900     0.7140     0.3540 c3         1 0JJ      -0.129400
      2 C5           1.1450     0.3490     0.2630 cc         1 0JJ       0.366600
      3 C6           2.0430     0.4900     1.3900 cc         1 0JJ      -0.250300
      4 N2           1.7280    -0.1450    -0.8310 nd         1 0JJ      -0.542100
      5 S1           3.2980    -0.4370    -0.5620 ss         1 0JJ       0.331200
      6 C4           3.3200     0.0680     1.0470 cd         1 0JJ      -0.201600
      7 C3           4.4730     0.0670     1.9270 cd         1 0JJ       0.484800
      8 C1           4.2530    -0.0450     3.3600 cd         1 0JJ      -0.226300
      9 C2           5.3170    -0.0450     4.2130 cc         1 0JJ      -0.030000
     10 N1           5.6950     0.1670     1.3740 nc         1 0JJ      -0.469800
     11 N3           6.7260     0.1640     2.2030 na         1 0JJ       0.087300
     12 C8           6.6280     0.0670     3.6450 cc         1 0JJ      -0.123300
     13 N4           7.9010     0.1030     4.1560 nd         1 0JJ      -0.052000
     14 N5           8.7550     0.2070     3.1710 nd         1 0JJ      -0.342700
     15 C9           8.1170     0.2520     1.9570 cc         1 0JJ       0.294800
     16 C10          8.7310     0.3920     0.5920 c3         1 0JJ       0.210500
     17 N6           8.2780    -0.5410    -0.3940 nu         1 0JJ      -0.736600
     18 C11          8.6630    -1.8750    -0.3710 ca         1 0JJ       0.174300
     19 C12          9.6890    -2.3540     0.4470 ca         1 0JJ      -0.347300
     20 C13         10.1060    -3.7030     0.3330 ca         1 0JJ       0.459200
     21 N7           9.5880    -4.5920    -0.5010 nb         1 0JJ      -0.698000
     22 C15          8.5570    -4.1700    -1.3090 ca         1 0JJ       0.358300
     23 C16          7.9570    -5.1030    -2.2220 ca         1 0JJ      -0.237300
     24 C14          8.0390    -2.8290    -1.2850 ca         1 0JJ       0.214300
     25 N8           6.9890    -2.4370    -2.0900 nb         1 0JJ      -0.640000
     26 C18          6.4560    -3.3120    -2.9130 ca         1 0JJ       0.396200
     27 C17          6.9190    -4.6750    -3.0170 ca         1 0JJ       0.019800
     28 O1           6.2390    -5.4360    -3.9390 os         1 0JJ      -0.317900
     29 C19          6.6770    -6.7850    -4.0770 c3         1 0JJ       0.109700
     30 H1          -0.8900    -0.1910     0.6260 hc         1 0JJ       0.058367
     31 H2          -0.4300     1.4920     1.1440 hc         1 0JJ       0.058367
     32 H3          -0.6730     1.1120    -0.6180 hc         1 0JJ       0.058367
     33 H4           1.7260     0.8900     2.3530 ha         1 0JJ       0.168000
     34 H5           3.2180    -0.1360     3.7200 ha         1 0JJ       0.163000
     35 H6           5.2210    -0.1280     5.3060 ha         1 0JJ       0.175000
     36 H7           9.8520     0.3140     0.7040 h1         1 0JJ       0.088200
     37 H8           8.4850     1.4290     0.2140 h1         1 0JJ       0.088200
     38 H9           7.3830    -0.3430    -0.7900 hn         1 0JJ       0.448800
     39 H10         10.1840    -1.7140     1.1900 ha         1 0JJ       0.156000
     40 H11         10.9270    -4.0690     0.9790 h4         1 0JJ       0.024100
     41 H12          8.3410    -6.1330    -2.2610 ha         1 0JJ       0.161000
     42 H13          5.6170    -2.9770    -3.5490 h4         1 0JJ       0.039100
     43 H14          6.0000    -7.1970    -4.8680 h1         1 0JJ       0.049700
     44 H15          6.5470    -7.3390    -3.1150 h1         1 0JJ       0.049700
     45 H16          7.7430    -6.8190    -4.4080 h1         1 0JJ       0.049700
@<TRIPOS>BOND
     1     1     2 1   
     2     1    30 1   
     3     1    31 1   
     4     1    32 1   
     5     2     3 1   
     6     2     4 2   
     7     3     6 2   
     8     3    33 1   
     9     4     5 1   
    10     5     6 1   
    11     6     7 1   
    12     7     8 1   
    13     7    10 2   
    14     8     9 2   
    15     8    34 1   
    16     9    12 1   
    17     9    35 1   
    18    10    11 1   
    19    11    12 1   
    20    11    15 1   
    21    12    13 2   
    22    13    14 1   
    23    14    15 2   
    24    15    16 1   
    25    16    17 1   
    26    16    36 1   
    27    16    37 1   
    28    17    18 1   
    29    17    38 1   
    30    18    19 ar  
    31    18    24 ar  
    32    19    20 ar  
    33    19    39 1   
    34    20    21 ar  
    35    20    40 1   
    36    21    22 ar  
    37    22    23 ar  
    38    22    24 ar  
    39    23    27 ar  
    40    23    41 1   
    41    24    25 ar  
    42    25    26 ar  
    43    26    27 ar  
    44    26    42 1   
    45    27    28 1   
    46    28    29 1   
    47    29    43 1   
    48    29    44 1   
    49    29    45 1   
@<TRIPOS>SUBSTRUCTURE
     1 0JJ         1 TEMP              0 ****  ****    0 ROOT
