@<TRIPOS>MOLECULE
0JJ
   45    49     1     0     0
SMALL
bcc


@<TRIPOS>ATOM
      1 C7           0.0000     0.0000     0.0000 c3         1 0JJ      -0.030400
      2 C5           1.5070     0.0000     0.0000 cc         1 0JJ       0.356600
      3 C6           2.2100     0.0000     1.1790 cc         1 0JJ      -0.193300
      4 N2           2.1720    -0.0050    -1.1180 nd         1 0JJ      -0.359100
      5 S1           3.8250    -0.0030    -0.7300 ss         1 0JJ      -0.018800
      6 C4           3.5790     0.0000     1.0240 cd         1 0JJ      -0.075600
      7 C3           4.6100     0.0030     2.0840 cd         1 0JJ       0.562800
      8 C1           5.9770     0.0030     1.7270 cd         1 0JJ      -0.263300
      9 C2           6.9330     0.0060     2.6940 cc         1 0JJ       0.052000
     10 N1           4.2440     0.0110     3.3490 nc         1 0JJ      -0.608800
     11 N3           5.2040     0.0150     4.3620 na         1 0JJ       0.588300
     12 C8           6.5420     0.0090     4.0460 cc         1 0JJ      -0.322300
     13 N4           7.2060     0.0140     5.1910 nd         1 0JJ      -0.036000
     14 N5           6.3680     0.0230     6.1680 nd         1 0JJ      -0.302700
     15 C9           5.1410     0.0230     5.7120 cc         1 0JJ       0.107800
     16 C10          3.8830     0.0320     6.5430 c3         1 0JJ       0.187500
     17 N6           3.4800     1.4160     6.8030 nu         1 0JJ      -0.375600
     18 C11          2.3430     1.6770     7.5540 ca         1 0JJ       0.059300
     19 C12          1.5740     0.6460     8.0670 ca         1 0JJ      -0.371300
     20 C13          0.4400     0.9370     8.8150 ca         1 0JJ       0.489200
     21 N7           0.0700     2.1730     9.0540 nb         1 0JJ      -0.640000
     22 C15          0.7650     3.2160     8.5900 ca         1 0JJ       0.352300
     23 C16          0.3550     4.5360     8.8540 ca         1 0JJ      -0.182300
     24 C14          1.9370     3.0080     7.8240 ca         1 0JJ       0.171300
     25 N8           2.6340     4.0460     7.3630 nb         1 0JJ      -0.526000
     26 C18          2.2680     5.2800     7.6060 ca         1 0JJ       0.297200
     27 C17          1.1170     5.5690     8.3460 ca         1 0JJ       0.045800
     28 O1           0.7630     6.8590     8.5820 os         1 0JJ      -0.297900
     29 C19          1.6120     7.8730     8.0440 c3         1 0JJ       0.242700
     30 H1          -0.3610    -0.0010    -1.0210 hc         1 0JJ       0.020700
     31 H2          -0.3610    -0.8840     0.5110 hc         1 0JJ       0.020700
     32 H3          -0.3610     0.8850     0.5100 hc         1 0JJ       0.020700
     33 H4           1.7290     0.0010     2.1500 ha         1 0JJ       0.149000
     34 H5           6.2640     0.0010     0.6830 ha         1 0JJ       0.142000
     35 H6           7.9830     0.0060     2.4270 ha         1 0JJ       0.132000
     36 H7           4.0680    -0.4730     7.4830 h1         1 0JJ       0.034200
     37 H8           3.0930    -0.4800     6.0070 h1         1 0JJ       0.034200
     38 H9           4.0450     2.1730     6.4720 hn         1 0JJ       0.314800
     39 H10          1.8550    -0.3850     7.8860 ha         1 0JJ       0.125000
     40 H11         -0.1540     0.1220     9.2110 h4         1 0JJ      -0.027900
     41 H12         -0.5400     4.7360     9.4300 ha         1 0JJ       0.137000
     42 H13          2.8610     6.0960     7.2100 h4         1 0JJ      -0.006900
     43 H14          1.2210     8.8490     8.3070 h1         1 0JJ      -0.000967
     44 H15          1.6500     7.7780     6.9660 h1         1 0JJ      -0.000967
     45 H16          2.6100     7.7630     8.4520 h1         1 0JJ      -0.000967
@<TRIPOS>BOND
     1     1     2 1   
     2     1    30 1   
     3     1    31 1   
     4     1    32 1   
     5     2     3 1   
     6     2     4 2   
     7     3     6 2   
     8     3    33 1   
     9     4     5 1   
    10     5     6 1   
    11     6     7 1   
    12     7     8 1   
    13     7    10 2   
    14     8     9 2   
    15     8    34 1   
    16     9    12 1   
    17     9    35 1   
    18    10    11 1   
    19    11    12 1   
    20    11    15 1   
    21    12    13 2   
    22    13    14 1   
    23    14    15 2   
    24    15    16 1   
    25    16    17 1   
    26    16    36 1   
    27    16    37 1   
    28    17    18 1   
    29    17    38 1   
    30    18    19 ar  
    31    18    24 ar  
    32    19    20 ar  
    33    19    39 1   
    34    20    21 ar  
    35    20    40 1   
    36    21    22 ar  
    37    22    23 ar  
    38    22    24 ar  
    39    23    27 ar  
    40    23    41 1   
    41    24    25 ar  
    42    25    26 ar  
    43    26    27 ar  
    44    26    42 1   
    45    27    28 1   
    46    28    29 1   
    47    29    43 1   
    48    29    44 1   
    49    29    45 1   
@<TRIPOS>SUBSTRUCTURE
     1 0JJ         1 TEMP              0 ****  ****    0 ROOT
