@<TRIPOS>MOLECULE
molecule
   45    49     1     0     0
SMALL
bcc


@<TRIPOS>ATOM
      1 C7           0.0000     0.0000     0.0000 c3         1 0JJ      -0.128400
      2 C5           1.5070     0.0000     0.0000 cc         1 0JJ       0.360600
      3 C6           2.2100     0.0000     1.1790 cc         1 0JJ      -0.230300
      4 N2           2.1720    -0.0050    -1.1180 nd         1 0JJ      -0.442100
      5 S1           3.8250    -0.0030    -0.7300 ss         1 0JJ       0.107200
      6 C4           3.5790     0.0000     1.0240 cd         1 0JJ      -0.103600
      7 C3           4.6100     0.0030     2.0840 cd         1 0JJ       0.513800
      8 C1           5.9770     0.0030     1.7270 cc         1 0JJ      -0.254300
      9 C2           6.9330     0.0060     2.6940 cd         1 0JJ      -0.014000
     10 N1           4.2440     0.0110     3.3490 nc         1 0JJ      -0.467800
     11 N3           5.2040     0.0150     4.3620 na         1 0JJ       0.097300
     12 C8           6.5420     0.0090     4.0460 cd         1 0JJ      -0.129300
     13 N4           7.2060     0.0140     5.1910 nc         1 0JJ      -0.059000
     14 N5           6.3680     0.0230     6.1680 nc         1 0JJ      -0.335700
     15 C9           5.1410     0.0230     5.7120 cd         1 0JJ       0.318800
     16 C10          3.8830     0.0320     6.5430 c3         1 0JJ       0.247500
     17 N6           3.4800     1.4160     6.8030 nu         1 0JJ      -0.789600
     18 C11          2.3430     1.6770     7.5540 ca         1 0JJ       0.209300
     19 C12          1.5740     0.6460     8.0670 ca         1 0JJ      -0.383300
     20 C13          0.4400     0.9370     8.8150 ca         1 0JJ       0.493200
     21 N7           0.0700     2.1730     9.0540 nb         1 0JJ      -0.735000
     22 C15          0.7650     3.2160     8.5900 ca         1 0JJ       0.380300
     23 C16          0.3550     4.5360     8.8540 ca         1 0JJ      -0.189300
     24 C14          1.9370     3.0080     7.8240 ca         1 0JJ       0.217300
     25 N8           2.6340     4.0460     7.3630 nb         1 0JJ      -0.648000
     26 C18          2.2680     5.2800     7.6060 ca         1 0JJ       0.339200
     27 C17          1.1170     5.5690     8.3460 ca         1 0JJ       0.029800
     28 O1           0.7630     6.8590     8.5820 os         1 0JJ      -0.319900
     29 C19          1.6120     7.8730     8.0440 c3         1 0JJ       0.125700
     30 H1          -0.3610    -0.0010    -1.0210 hc         1 0JJ       0.059367
     31 H2          -0.3610    -0.8840     0.5110 hc         1 0JJ       0.059367
     32 H3          -0.3610     0.8850     0.5100 hc         1 0JJ       0.059367
     33 H4           1.7290     0.0010     2.1500 ha         1 0JJ       0.179000
     34 H5           6.2640     0.0010     0.6830 ha         1 0JJ       0.161000
     35 H6           7.9830     0.0060     2.4270 ha         1 0JJ       0.174000
     36 H7           4.0680    -0.4730     7.4830 h1         1 0JJ       0.070700
     37 H8           3.0930    -0.4800     6.0070 h1         1 0JJ       0.070700
     38 H9           4.0450     2.1730     6.4720 hn         1 0JJ       0.468800
     39 H10          1.8550    -0.3850     7.8860 ha         1 0JJ       0.139000
     40 H11         -0.1540     0.1220     9.2110 h4         1 0JJ       0.022100
     41 H12         -0.5400     4.7360     9.4300 ha         1 0JJ       0.170000
     42 H13          2.8610     6.0960     7.2100 h4         1 0JJ       0.026100
     43 H14          1.2210     8.8490     8.3070 h1         1 0JJ       0.044033
     44 H15          1.6500     7.7780     6.9660 h1         1 0JJ       0.044033
     45 H16          2.6100     7.7630     8.4520 h1         1 0JJ       0.044033
@<TRIPOS>BOND
     1    16    15 1   
     2    16    17 1   
     3    14    15 2   
     4    14    13 1   
     5    15    11 1   
     6    17    18 1   
     7    13    12 2   
     8    18    19 ar  
     9    18    24 ar  
    10    19    20 ar  
    11    11    10 1   
    12    11    12 1   
    13    10     7 2   
    14    12     9 1   
    15    24    25 ar  
    16    24    22 ar  
    17    25    26 ar  
    18    20    21 ar  
    19     5     6 1   
    20     5     4 1   
    21     7     6 1   
    22     7     8 1   
    23     9     8 2   
    24    26    27 ar  
    25    21    22 ar  
    26    22    23 ar  
    27     6     3 2   
    28     4     2 2   
    29    27    23 ar  
    30    27    28 1   
    31     3     2 1   
    32     2     1 1   
    33    28    29 1   
    34     1    30 1   
    35     1    31 1   
    36     1    32 1   
    37     3    33 1   
    38     8    34 1   
    39     9    35 1   
    40    16    36 1   
    41    16    37 1   
    42    17    38 1   
    43    19    39 1   
    44    20    40 1   
    45    23    41 1   
    46    26    42 1   
    47    29    43 1   
    48    29    44 1   
    49    29    45 1   
@<TRIPOS>SUBSTRUCTURE
     1 0JJ         1 TEMP              0 ****  ****    0 ROOT
