@<TRIPOS>MOLECULE
0JK
   44    48     1     0     0
SMALL
bcc


@<TRIPOS>ATOM
      1 C18          0.0000     0.0000     0.0000 ca         1 0JK      -0.047000
      2 C17          1.4030     0.0000     0.0000 ca         1 0JK      -0.158300
      3 C21          2.1370     0.0000     1.2010 ca         1 0JK      -0.045000
      4 C20          3.5000    -0.0010     1.1230 ca         1 0JK      -0.226300
      5 C19          4.1270    -0.0010    -0.1210 ca         1 0JK       0.419200
      6 N5           3.4400    -0.0010    -1.2380 nb         1 0JK      -0.571000
      7 C16          2.1040     0.0000    -1.2330 ca         1 0JK       0.382600
      8 C15          1.3720     0.0000    -2.4330 ca         1 0JK      -0.138300
      9 C14          0.0120     0.0000    -2.3960 ca         1 0JK      -0.087000
     10 C13         -0.6740    -0.0050    -1.1840 ca         1 0JK      -0.137300
     11 C12         -2.1810    -0.0050    -1.1820 c3         1 0JK       0.004600
     12 N4          -2.6690     1.3760    -1.1870 na         1 0JK       0.692400
     13 C10         -2.9370     2.1230    -2.2800 cc         1 0JK      -0.527200
     14 C11         -2.8520     1.8570    -3.7230 c          1 0JK       0.701100
     15 O1          -2.6510     0.7370    -4.1540 o          1 0JK      -0.684500
     16 N3          -2.9280     2.1000    -0.1460 nc         1 0JK      -0.389800
     17 N2          -3.3480     3.2700    -0.4960 nd         1 0JK      -0.290000
     18 C9          -3.3780     3.3440    -1.8100 cd         1 0JK       0.283600
     19 C8          -3.7940     4.4440    -2.7490 c3         1 0JK      -0.033700
     20 C7          -3.0220     4.2920    -4.0610 c3         1 0JK       0.044000
     21 N1          -3.0110     2.9180    -4.5490 n          1 0JK      -0.008000
     22 C4          -3.1690     2.6880    -5.9190 ca         1 0JK      -0.087400
     23 C3          -4.3170     2.0640    -6.3920 ca         1 0JK      -0.089000
     24 C2          -4.4700     1.8390    -7.7460 ca         1 0JK      -0.092500
     25 C1          -3.4830     2.2330    -8.6300 ca         1 0JK      -0.092000
     26 C6          -2.3390     2.8540    -8.1630 ca         1 0JK      -0.092500
     27 C5          -2.1820     3.0870    -6.8100 ca         1 0JK      -0.089000
     28 H1          -0.5440    -0.0040     0.9370 ha         1 0JK       0.117000
     29 H2           1.6340     0.0000     2.1600 ha         1 0JK       0.113000
     30 H3           4.0940    -0.0020     2.0290 ha         1 0JK       0.113000
     31 H4           5.2090    -0.0020    -0.1670 h4         1 0JK      -0.021900
     32 H5           1.8900     0.0040    -3.3850 ha         1 0JK       0.121000
     33 H6          -0.5460    -0.0030    -3.3240 ha         1 0JK       0.135000
     34 H7          -2.5430    -0.5200    -2.0630 h1         1 0JK       0.062700
     35 H8          -2.5410    -0.5120    -0.2940 h1         1 0JK       0.062700
     36 H9          -3.5660     5.4050    -2.3040 hc         1 0JK       0.035200
     37 H10         -4.8570     4.3700    -2.9440 hc         1 0JK       0.035200
     38 H11         -3.4820     4.9240    -4.8110 h1         1 0JK       0.025700
     39 H12         -2.0000     4.6140    -3.9030 h1         1 0JK       0.025700
     40 H13         -5.0900     1.7550    -5.7000 ha         1 0JK       0.109500
     41 H14         -5.3650     1.3520    -8.1150 ha         1 0JK       0.105500
     42 H15         -3.6050     2.0530    -9.6920 ha         1 0JK       0.104000
     43 H16         -1.5690     3.1640    -8.8580 ha         1 0JK       0.105500
     44 H17         -1.2860     3.5730    -6.4440 ha         1 0JK       0.109500
@<TRIPOS>BOND
     1     1     2 ar
     2     1    10 ar
     3     1    28 1
     4     2     3 ar
     5     2     7 ar
     6     3     4 ar
     7     3    29 1
     8     4     5 ar
     9     4    30 1
    10     5     6 ar
    11     5    31 1
    12     6     7 ar
    13     7     8 ar
    14     8     9 ar
    15     8    32 1
    16     9    10 ar
    17     9    33 1
    18    10    11 1
    19    11    12 1
    20    11    34 1
    21    11    35 1
    22    12    13 1
    23    12    16 1
    24    13    14 1
    25    13    18 2
    26    14    15 2
    27    14    21 1
    28    16    17 2
    29    17    18 1
    30    18    19 1
    31    19    20 1
    32    19    36 1
    33    19    37 1
    34    20    21 1
    35    20    38 1
    36    20    39 1
    37    21    22 1
    38    22    23 ar
    39    22    27 ar
    40    23    24 ar
    41    23    40 1
    42    24    25 ar
    43    24    41 1
    44    25    26 ar
    45    25    42 1
    46    26    27 ar
    47    26    43 1
    48    27    44 1
@<TRIPOS>SUBSTRUCTURE
     1 0JK         1 TEMP              0 ****  ****    0 ROOT
