@<TRIPOS>MOLECULE
0JK
   44    48     1     0     0
SMALL
bcc


@<TRIPOS>ATOM
      1 C18          0.3130     0.2050    -0.1730 ca         1 0JK      -0.079000
      2 C17          1.6990    -0.0520    -0.3140 ca         1 0JK      -0.158300
      3 C21          2.6300     0.2460     0.7240 ca         1 0JK      -0.074000
      4 C20          3.9600    -0.0250     0.5320 ca         1 0JK      -0.252300
      5 C19          4.3660    -0.6010    -0.7140 ca         1 0JK       0.417200
      6 N5           3.5420    -0.8940    -1.7040 nb         1 0JK      -0.658000
      7 C16          2.1960    -0.6260    -1.5250 ca         1 0JK       0.404600
      8 C15          1.2640    -0.9240    -2.5700 ca         1 0JK      -0.169300
      9 C14         -0.0730    -0.6680    -2.4010 ca         1 0JK      -0.103000
     10 C13         -0.5580    -0.1060    -1.1930 ca         1 0JK      -0.125300
     11 C12         -2.0300     0.1210    -1.0210 c3         1 0JK       0.091600
     12 N4          -2.5180     1.3240    -1.6810 na         1 0JK       0.112400
     13 C10         -2.6010     2.5960    -1.1030 cc         1 0JK      -0.267200
     14 C11         -2.3270     3.0590     0.2660 c          1 0JK       0.762100
     15 O1          -2.0090     2.2830     1.1870 o          1 0JK      -0.634500
     16 N3          -2.9050     1.4130    -2.9720 nc         1 0JK      -0.156800
     17 N2          -3.2510     2.6080    -3.2710 nd         1 0JK      -0.344000
     18 C9          -3.0870     3.4260    -2.1420 cd         1 0JK       0.301600
     19 C8          -3.3520     4.8540    -1.9200 c3         1 0JK      -0.112700
     20 C7          -2.5510     5.3360    -0.6990 c3         1 0JK       0.098000
     21 N1          -2.5050     4.4340     0.4400 n          1 0JK      -0.383000
     22 C4          -2.3800     5.0270     1.7270 ca         1 0JK       0.047600
     23 C3          -1.3220     4.6790     2.5940 ca         1 0JK      -0.133500
     24 C2          -1.2210     5.2770     3.8470 ca         1 0JK      -0.119000
     25 C1          -2.1550     6.2250     4.2590 ca         1 0JK      -0.133000
     26 C6          -3.2070     6.5690     3.4120 ca         1 0JK      -0.119000
     27 C5          -3.3310     5.9780     2.1580 ca         1 0JK      -0.133500
     28 H1          -0.0570     0.6610     0.7620 ha         1 0JK       0.156000
     29 H2           2.2600     0.6880     1.6610 ha         1 0JK       0.142000
     30 H3           4.7150     0.1860     1.3000 ha         1 0JK       0.145000
     31 H4           5.4350    -0.8270    -0.8870 h4         1 0JK       0.023100
     32 H5           1.6380    -1.3590    -3.5100 ha         1 0JK       0.155000
     33 H6          -0.7900    -0.8910    -3.2070 ha         1 0JK       0.148000
     34 H7          -2.2770     0.2360     0.0770 h1         1 0JK       0.094200
     35 H8          -2.5960    -0.7620    -1.4380 h1         1 0JK       0.094200
     36 H9          -4.4520     5.0090    -1.7540 hc         1 0JK       0.076700
     37 H10         -3.0490     5.4710    -2.8070 hc         1 0JK       0.076700
     38 H11         -1.4890     5.5330    -1.0340 h1         1 0JK       0.056700
     39 H12         -2.9920     6.3160    -0.3590 h1         1 0JK       0.056700
     40 H13         -0.5890     3.9140     2.2920 ha         1 0JK       0.143500
     41 H14         -0.3940     4.9930     4.5150 ha         1 0JK       0.135500
     42 H15         -2.0670     6.6960     5.2490 ha         1 0JK       0.135000
     43 H16         -3.9540     7.3100     3.7350 ha         1 0JK       0.135500
     44 H17         -4.1790     6.2530     1.5140 ha         1 0JK       0.143500
@<TRIPOS>BOND
     1     1     2 ar  
     2     1    10 ar  
     3     1    28 1   
     4     2     3 ar  
     5     2     7 ar  
     6     3     4 ar  
     7     3    29 1   
     8     4     5 ar  
     9     4    30 1   
    10     5     6 ar  
    11     5    31 1   
    12     6     7 ar  
    13     7     8 ar  
    14     8     9 ar  
    15     8    32 1   
    16     9    10 ar  
    17     9    33 1   
    18    10    11 1   
    19    11    12 1   
    20    11    34 1   
    21    11    35 1   
    22    12    13 1   
    23    12    16 1   
    24    13    14 1   
    25    13    18 2   
    26    14    15 2   
    27    14    21 1   
    28    16    17 2   
    29    17    18 1   
    30    18    19 1   
    31    19    20 1   
    32    19    36 1   
    33    19    37 1   
    34    20    21 1   
    35    20    38 1   
    36    20    39 1   
    37    21    22 1   
    38    22    23 ar  
    39    22    27 ar  
    40    23    24 ar  
    41    23    40 1   
    42    24    25 ar  
    43    24    41 1   
    44    25    26 ar  
    45    25    42 1   
    46    26    27 ar  
    47    26    43 1   
    48    27    44 1   
@<TRIPOS>SUBSTRUCTURE
     1 0JK         1 TEMP              0 ****  ****    0 ROOT
