@<TRIPOS>MOLECULE
molecule
   55    59     1     0     0
SMALL
bcc


@<TRIPOS>ATOM
      1 CBF          0.0000     0.0000     0.0000 c3         1 0JL      -0.125400
      2 CBE          1.5070     0.0000     0.0000 cc         1 0JL       0.385600
      3 CBB          2.2260     0.0000     1.1740 cc         1 0JL      -0.337300
      4 NBD          2.1870    -0.0050    -1.1090 nd         1 0JL      -0.507100
      5 S            3.8310    -0.0040    -0.6910 ss         1 0JL       0.243200
      6 CBA          3.5760     0.0000     1.0100 cd         1 0JL       0.051500
      7 NAZ          4.5490     0.0030     2.0110 n          1 0JL      -0.185200
      8 CAT          5.8480     0.0070     1.6560 c          1 0JL       0.737100
      9 CAS          6.8500     0.0160     2.6450 cc         1 0JL      -0.325200
     10 OBG          6.1580     0.0050     0.4770 o          1 0JL      -0.643500
     11 CAY          4.1530     0.0050     3.3180 cc         1 0JL      -0.026400
     12 CAX          5.0520     0.0090     4.3220 cd         1 0JL      -0.253800
     13 CAW          6.4740     0.0180     3.9950 cd         1 0JL       0.388100
     14 NAV          7.6160     0.0270     4.6950 nd         1 0JL      -0.354000
     15 NAU          8.6120     0.0290     3.8790 nc         1 0JL      -0.159800
     16 NAR          8.2180     0.0220     2.6520 na         1 0JL       0.181400
     17 CAP          9.0850     0.0220     1.4710 c3         1 0JL       0.105300
     18 CAQ          9.9620     1.2760     1.4800 c3         1 0JL      -0.104100
     19 CAO          9.9610    -1.2050     1.4910 ca         1 0JL      -0.109300
     20 CAI          9.8910    -2.0970     0.4640 ca         1 0JL      -0.093000
     21 CAH         10.7060    -3.2400     0.4820 ca         1 0JL      -0.123300
     22 CAG         10.6640    -4.1850    -0.5590 ca         1 0JL      -0.122000
     23 CAN         10.8360    -1.4070     2.5560 ca         1 0JL      -0.115000
     24 CAM         11.6410    -2.5030     2.6050 ca         1 0JL      -0.150300
     25 CAL         11.5930    -3.4510     1.5680 ca         1 0JL       0.392600
     26 NAK         12.3710    -4.5370     1.5910 nb         1 0JL      -0.651000
     27 CAJ         12.3380    -5.4230     0.6260 ca         1 0JL       0.365200
     28 CAF         11.4880    -5.2770    -0.4750 ca         1 0JL       0.015800
     29 OAE         11.4790    -6.2150    -1.4580 os         1 0JL      -0.312900
     30 CAD         12.3650    -7.3250    -1.3040 c3         1 0JL       0.138400
     31 CAC         12.2140    -8.2680    -2.5000 c3         1 0JL       0.140400
     32 OAB         12.6460    -7.6020    -3.6880 os         1 0JL      -0.420600
     33 CAA         12.5470    -8.4000    -4.8700 c3         1 0JL       0.128700
     34 H1          -0.3610    -0.9090     0.4650 hc         1 0JL       0.054367
     35 H2          -0.3610     0.8570     0.5550 hc         1 0JL       0.054367
     36 H3          -0.3610     0.0520    -1.0200 hc         1 0JL       0.054367
     37 H4           1.7550     0.0020     2.1490 ha         1 0JL       0.156000
     38 H6           3.0960     0.0050     3.5530 h4         1 0JL       0.172000
     39 H7           4.7240     0.0110     5.3540 ha         1 0JL       0.169000
     40 H8           8.4740     0.0150     0.5760 h1         1 0JL       0.112700
     41 H9           9.3540     2.1440     1.2580 hc         1 0JL       0.058033
     42 H10         10.7390     1.1780     0.7320 hc         1 0JL       0.058033
     43 H11         10.4140     1.3930     2.4580 hc         1 0JL       0.058033
     44 H12          9.1330    -1.9840    -0.3010 ha         1 0JL       0.144000
     45 H13          9.9990    -4.0540    -1.4040 ha         1 0JL       0.157000
     46 H14         10.8770    -0.6800     3.3580 ha         1 0JL       0.155000
     47 H15         12.3160    -2.6450     3.4400 ha         1 0JL       0.153000
     48 H16         12.9850    -6.2900     0.6820 h4         1 0JL       0.026100
     49 H17         12.1220    -7.8570    -0.3920 h1         1 0JL       0.045700
     50 H18         13.3860    -6.9680    -1.2520 h1         1 0JL       0.045700
     51 H19         12.8190    -9.1520    -2.3410 h1         1 0JL       0.038200
     52 H20         11.1750    -8.5550    -2.6050 h1         1 0JL       0.038200
     53 H21         13.1320    -9.3030    -4.7470 h1         1 0JL       0.032033
     54 H22         12.9240    -7.8390    -5.7170 h1         1 0JL       0.032033
     55 H23         11.5100    -8.6610    -5.0430 h1         1 0JL       0.032033
@<TRIPOS>BOND
     1    18    17 1   
     2    17    16 1   
     3    17    19 1   
     4    15    16 1   
     5    15    14 2   
     6    16     9 1   
     7    19    23 ar  
     8    19    20 ar  
     9    23    24 ar  
    10    20    21 ar  
    11    14    13 1   
    12     9     8 1   
    13     9    13 2   
    14    10     8 2   
    15    24    25 ar  
    16     8     7 1   
    17    13    12 1   
    18    21    25 ar  
    19    21    22 ar  
    20    25    26 ar  
    21    22    28 ar  
    22    12    11 2   
    23     7    11 1   
    24     7     6 1   
    25     5     6 1   
    26     5     4 1   
    27    26    27 ar  
    28     6     3 2   
    29    28    27 ar  
    30    28    29 1   
    31     4     2 2   
    32    29    30 1   
    33     3     2 1   
    34     2     1 1   
    35    30    31 1   
    36    33    32 1   
    37    31    32 1   
    38     1    34 1   
    39     1    35 1   
    40     1    36 1   
    41     3    37 1   
    42    11    38 1   
    43    12    39 1   
    44    17    40 1   
    45    18    41 1   
    46    18    42 1   
    47    18    43 1   
    48    20    44 1   
    49    22    45 1   
    50    23    46 1   
    51    24    47 1   
    52    27    48 1   
    53    30    49 1   
    54    30    50 1   
    55    31    51 1   
    56    31    52 1   
    57    33    53 1   
    58    33    54 1   
    59    33    55 1   
@<TRIPOS>SUBSTRUCTURE
     1 0JL         1 TEMP              0 ****  ****    0 ROOT
