@<TRIPOS>MOLECULE
0JL
   55    59     1     0     0
SMALL
bcc


@<TRIPOS>ATOM
      1 CBF          0.0670     0.1100    -0.3830 c3         1 0JL      -0.130400
      2 CBE          1.4190     0.6680    -0.1360 cc         1 0JL       0.380600
      3 CBB          2.2270     0.2220     0.9760 cc         1 0JL      -0.303300
      4 NBD          1.9970     1.6050    -0.8880 nd         1 0JL      -0.547100
      5 S            3.4650     1.9820    -0.3210 ss         1 0JL       0.302200
      6 CBA          3.4460     0.9020     1.0000 cd         1 0JL       0.008500
      7 NAZ          4.4510     0.7500     1.9650 n          1 0JL      -0.226200
      8 CAT          5.8090     0.6160     1.5680 c          1 0JL       0.743100
      9 CAS          6.7160     0.3500     2.6730 cc         1 0JL      -0.276200
     10 OBG          6.1580     0.7410     0.3800 o          1 0JL      -0.626500
     11 CAY          4.0540     0.6090     3.3010 cc         1 0JL      -0.018400
     12 CAX          4.9070     0.3650     4.3400 cd         1 0JL      -0.254800
     13 CAW          6.2890     0.2210     4.0290 cd         1 0JL       0.379100
     14 NAV          7.4460    -0.0380     4.7900 nd         1 0JL      -0.344000
     15 NAU          8.4550    -0.0720     4.0070 nc         1 0JL      -0.136800
     16 NAR          8.1040     0.1630     2.7260 na         1 0JL       0.103400
     17 CAP          8.9990     0.1310     1.5620 c3         1 0JL       0.111300
     18 CAQ         10.3140     0.8680     1.8100 c3         1 0JL      -0.101100
     19 CAO          9.2640    -1.2800     1.0990 ca         1 0JL      -0.111300
     20 CAI          8.7190    -1.7140    -0.0890 ca         1 0JL      -0.091000
     21 CAH          8.9830    -3.0250    -0.5630 ca         1 0JL      -0.122300
     22 CAG          8.4410    -3.4940    -1.7900 ca         1 0JL      -0.119000
     23 CAN         10.0690    -2.1520     1.8740 ca         1 0JL      -0.114000
     24 CAM         10.3380    -3.4270     1.4480 ca         1 0JL      -0.158300
     25 CAL          9.8060    -3.9050     0.2060 ca         1 0JL       0.375600
     26 NAK         10.0890    -5.1900    -0.2160 nb         1 0JL      -0.633000
     27 CAJ          9.5790    -5.6000    -1.3610 ca         1 0JL       0.372200
     28 CAF          8.7410    -4.7830    -2.1950 ca         1 0JL       0.002800
     29 OAE          8.2390    -5.1880    -3.4120 os         1 0JL      -0.324900
     30 CAD          8.2860    -6.5990    -3.6660 c3         1 0JL       0.123400
     31 CAC          7.4220    -6.8230    -4.9030 c3         1 0JL       0.122400
     32 OAB          6.2190    -7.4380    -4.4500 os         1 0JL      -0.423600
     33 CAA          5.2440    -7.5500    -5.4720 c3         1 0JL       0.116700
     34 H1          -0.2830     0.3130    -1.4250 hc         1 0JL       0.058033
     35 H2          -0.6590     0.5710     0.3330 hc         1 0JL       0.058033
     36 H3           0.0850    -0.9950    -0.2170 hc         1 0JL       0.058033
     37 H4           1.9010    -0.5490     1.6740 ha         1 0JL       0.171000
     38 H6           2.9660     0.7270     3.4700 h4         1 0JL       0.167000
     39 H7           4.5500     0.2820     5.3740 ha         1 0JL       0.174000
     40 H8           8.4280     0.6820     0.7460 h1         1 0JL       0.103700
     41 H9          10.1230     1.9310     2.0930 hc         1 0JL       0.057367
     42 H10         10.9130     0.3830     2.6170 hc         1 0JL       0.057367
     43 H11         10.9060     0.8470     0.8630 hc         1 0JL       0.057367
     44 H12          8.0660    -1.0560    -0.6870 ha         1 0JL       0.154000
     45 H13          7.8030    -2.8410    -2.4010 ha         1 0JL       0.159000
     46 H14         10.4740    -1.7930     2.8340 ha         1 0JL       0.149000
     47 H15         10.9630    -4.1020     2.0540 ha         1 0JL       0.153000
     48 H16          9.8320    -6.6320    -1.6630 h4         1 0JL       0.027100
     49 H17          7.8820    -7.1690    -2.7890 h1         1 0JL       0.057700
     50 H18          9.3480    -6.8930    -3.8700 h1         1 0JL       0.057700
     51 H19          7.1950    -5.8490    -5.4140 h1         1 0JL       0.047200
     52 H20          7.9420    -7.5120    -5.6190 h1         1 0JL       0.047200
     53 H21          4.3770    -8.0530    -4.9760 h1         1 0JL       0.035700
     54 H22          5.6290    -8.1740    -6.3160 h1         1 0JL       0.035700
     55 H23          4.9490    -6.5400    -5.8490 h1         1 0JL       0.035700
@<TRIPOS>BOND
     1     1     2 1   
     2     1    34 1   
     3     1    35 1   
     4     1    36 1   
     5     2     3 1   
     6     2     4 2   
     7     3     6 2   
     8     3    37 1   
     9     4     5 1   
    10     5     6 1   
    11     6     7 1   
    12     7     8 1   
    13     7    11 1   
    14     8     9 1   
    15     8    10 2   
    16     9    13 2   
    17     9    16 1   
    18    11    12 2   
    19    11    38 1   
    20    12    13 1   
    21    12    39 1   
    22    13    14 1   
    23    14    15 2   
    24    15    16 1   
    25    16    17 1   
    26    17    18 1   
    27    17    19 1   
    28    17    40 1   
    29    18    41 1   
    30    18    42 1   
    31    18    43 1   
    32    19    20 ar  
    33    19    23 ar  
    34    20    21 ar  
    35    20    44 1   
    36    21    22 ar  
    37    21    25 ar  
    38    22    28 ar  
    39    22    45 1   
    40    23    24 ar  
    41    23    46 1   
    42    24    25 ar  
    43    24    47 1   
    44    25    26 ar  
    45    26    27 ar  
    46    27    28 ar  
    47    27    48 1   
    48    28    29 1   
    49    29    30 1   
    50    30    31 1   
    51    30    49 1   
    52    30    50 1   
    53    31    32 1   
    54    31    51 1   
    55    31    52 1   
    56    32    33 1   
    57    33    53 1   
    58    33    54 1   
    59    33    55 1   
@<TRIPOS>SUBSTRUCTURE
     1 0JL         1 TEMP              0 ****  ****    0 ROOT
