@<TRIPOS>MOLECULE
0JM
   44    46     1     0     0
SMALL
bcc


@<TRIPOS>ATOM
      1 O5           0.0000     0.0000     0.0000 o          1 0JM      -0.885300
      2 C16          1.3420     0.0000     0.0000 c          1 0JM       0.990600
      3 O1           1.9450     0.0000     1.0470 o          1 0JM      -0.885300
      4 C13          2.0970     0.0010    -1.3050 c3         1 0JM      -0.010500
      5 C12          2.1220     1.4350    -1.8540 c3         1 0JM       0.122100
      6 C14          1.4500     2.3980    -0.8730 c3         1 0JM      -0.048100
      7 C15          1.4350     1.4970    -3.2200 c3         1 0JM      -0.048100
      8 S1           3.9070     1.8170    -2.0150 ss         1 0JM      -0.470200
      9 N2           3.4180    -0.5690    -1.0770 nq         1 0JM      -0.497600
     10 C11          4.4940     0.0900    -1.8530 cy         1 0JM       0.241600
     11 C10          3.6270    -1.7540    -1.9320 cy         1 0JM       0.312300
     12 O4           4.6460    -2.6320    -1.4510 oh         1 0JM      -0.566800
     13 C9           4.1080    -0.8030    -3.0370 cy         1 0JM      -0.052300
     14 N1           3.0330    -0.2610    -3.8720 ns         1 0JM      -0.216900
     15 C8           3.2990     0.1510    -5.1280 c          1 0JM       0.639100
     16 O6           4.4180     0.0300    -5.5820 o          1 0JM      -0.702100
     17 C7           2.2080     0.7620    -5.9680 c3         1 0JM      -0.218400
     18 C17          1.1310    -0.2640    -6.2140 c          1 0JM       0.988600
     19 O2           0.0520     0.0580    -6.9440 o          1 0JM      -0.886800
     20 O3           1.2390    -1.3770    -5.7560 o          1 0JM      -0.886800
     21 C1           2.7800     1.2150    -7.2860 ca         1 0JM       0.026700
     22 C6           2.7080     2.5460    -7.6490 ca         1 0JM      -0.075000
     23 C2           3.3840     0.3000    -8.1290 ca         1 0JM      -0.075000
     24 C3           3.9100     0.7160    -9.3370 ca         1 0JM      -0.125500
     25 C4           3.8330     2.0460    -9.7040 ca         1 0JM      -0.146000
     26 C5           3.2340     2.9620    -8.8580 ca         1 0JM      -0.125500
     27 H2           1.5710    -0.6280    -2.0130 h1         1 0JM       0.048700
     28 H3           0.3990     2.1500    -0.7870 hc         1 0JM       0.035367
     29 H4           1.9230     2.3120     0.0980 hc         1 0JM       0.035367
     30 H5           1.5530     3.4130    -1.2370 hc         1 0JM       0.035367
     31 H6           0.9130     0.5670    -3.4040 hc         1 0JM       0.035367
     32 H7           2.1800     1.6530    -3.9910 hc         1 0JM       0.035367
     33 H8           0.7270     2.3170    -3.2300 hc         1 0JM       0.035367
     34 H10          5.4910    -0.0550    -1.4540 h2         1 0JM       0.080700
     35 H11          2.6990    -2.2530    -2.1870 h2         1 0JM       0.033700
     36 H12          4.3220    -3.5170    -1.4440 ho         1 0JM       0.380000
     37 H13          4.9650    -1.1810    -3.5810 h1         1 0JM       0.067700
     38 H14          2.0890    -0.2720    -3.5400 hn         1 0JM       0.253500
     39 H15          1.7840     1.6120    -5.4480 hc         1 0JM       0.068700
     40 H17          2.2220     3.2600    -6.9960 ha         1 0JM       0.111000
     41 H18          3.4170    -0.7480    -7.8560 ha         1 0JM       0.111000
     42 H19          4.3770    -0.0030   -10.0000 ha         1 0JM       0.078500
     43 H20          4.2150     2.3660   -10.6660 ha         1 0JM       0.075000
     44 H21          3.1840     4.0020    -9.1560 ha         1 0JM       0.078500
@<TRIPOS>BOND
     1     1     2 1   
     2     2     3 1   
     3     2     4 1   
     4     4     5 1   
     5     4     9 1   
     6     4    27 1   
     7     5     6 1   
     8     5     7 1   
     9     5     8 1   
    10     6    28 1   
    11     6    29 1   
    12     6    30 1   
    13     7    31 1   
    14     7    32 1   
    15     7    33 1   
    16     8    10 1   
    17     9    10 1   
    18     9    11 1   
    19    10    13 1   
    20    10    34 1   
    21    11    12 1   
    22    11    13 1   
    23    11    35 1   
    24    12    36 1   
    25    13    14 1   
    26    13    37 1   
    27    14    15 1   
    28    14    38 1   
    29    15    16 2   
    30    15    17 1   
    31    17    18 1   
    32    17    21 1   
    33    17    39 1   
    34    18    19 1   
    35    18    20 1   
    36    21    22 ar  
    37    21    23 ar  
    38    22    26 ar  
    39    22    40 1   
    40    23    24 ar  
    41    23    41 1   
    42    24    25 ar  
    43    24    42 1   
    44    25    26 ar  
    45    25    43 1   
    46    26    44 1   
@<TRIPOS>SUBSTRUCTURE
     1 0JM         1 TEMP              0 ****  ****    0 ROOT
