@<TRIPOS>MOLECULE
0JM
   45    47     1     0     0
SMALL
bcc


@<TRIPOS>ATOM
      1 O5           1.0550    -0.1080     1.5090 o          1 0JM      -0.803800
      2 C16          2.1740     0.2810     1.0910 c          1 0JM       0.956600
      3 O1           3.1850     0.5490     1.7830 o          1 0JM      -0.803800
      4 C13          2.3730     0.3230    -0.4860 c3         1 0JM      -0.009500
      5 C12          1.0760     0.3160    -1.3070 c3         1 0JM       0.169100
      6 C14          0.4920    -1.0650    -1.4100 c3         1 0JM      -0.095100
      7 C15          0.0580     1.3220    -0.8460 c3         1 0JM      -0.095100
      8 S1           1.6530     0.8580    -3.0110 ss         1 0JM      -0.504200
      9 N2           3.2250     1.4380    -0.8990 nq         1 0JM      -0.644600
     10 C11          2.9670     1.8350    -2.3080 cy         1 0JM       0.223600
     11 C10          4.6390     1.0420    -1.1990 cy         1 0JM       0.371300
     12 O4           5.6200     1.8380    -0.5860 oh         1 0JM      -0.598800
     13 C9           4.4410     1.4900    -2.7090 cy         1 0JM       0.050500
     14 N1           4.5900     0.4310    -3.7140 ny         1 0JM      -0.682800
     15 C8           4.9400     0.8910    -5.1090 c          1 0JM       0.582100
     16 O6           5.2130     2.0760    -5.2610 o          1 0JM      -0.480100
     17 C7           4.9670    -0.2250    -6.1160 c3         1 0JM      -0.241400
     18 C17          6.1730    -1.1940    -5.7620 c          1 0JM       0.936600
     19 O2           6.8740    -1.6400    -6.6880 o          1 0JM      -0.777800
     20 O3           6.2940    -1.4740    -4.5320 o          1 0JM      -0.777800
     21 C1           4.9630     0.3160    -7.5030 ca         1 0JM      -0.063300
     22 C6           3.7370     0.5040    -8.1580 ca         1 0JM      -0.094500
     23 C2           6.1520     0.6250    -8.1730 ca         1 0JM      -0.094500
     24 C3           6.1120     1.1240    -9.4750 ca         1 0JM      -0.142000
     25 C4           4.8910     1.3170   -10.1180 ca         1 0JM      -0.128000
     26 C5           3.7030     1.0040    -9.4580 ca         1 0JM      -0.142000
     27 H2           2.8900    -0.6690    -0.6880 h1         1 0JM       0.034700
     28 H3           1.2050    -1.7750    -1.8950 hc         1 0JM       0.056367
     29 H4          -0.4580    -1.0520    -1.9970 hc         1 0JM       0.056367
     30 H5           0.2750    -1.4230    -0.3670 hc         1 0JM       0.056367
     31 H6          -0.2640     1.0550     0.1970 hc         1 0JM       0.056367
     32 H7          -0.8310     1.3190    -1.5210 hc         1 0JM       0.056367
     33 H8           0.4950     2.3500    -0.8270 hc         1 0JM       0.056367
     34 H10          2.7410     2.9220    -2.3970 h2         1 0JM       0.114700
     35 H11          4.8910    -0.0420    -1.0430 h2         1 0JM       0.076700
     36 H12          5.3330     1.9950     0.3300 ho         1 0JM       0.460000
     37 H13          5.0580     2.3850    -2.9830 hx         1 0JM       0.139700
     38 H14          5.3530    -0.2480    -3.4450 hn         1 0JM       0.488800
     39 H15          4.0550    -0.8760    -5.9810 hc         1 0JM       0.089700
     40 H17          2.7960     0.2540    -7.6460 ha         1 0JM       0.145000
     41 H18          7.1190     0.4370    -7.6770 ha         1 0JM       0.145000
     42 H19          7.0520     1.3590    -9.9950 ha         1 0JM       0.124500
     43 H20          4.8630     1.7120   -11.1430 ha         1 0JM       0.120000
     44 H21          2.7370     1.1490    -9.9630 ha         1 0JM       0.124500
     45 H121         3.6980    -0.0980    -3.7630 hn         1 0JM       0.488800
@<TRIPOS>BOND
     1     1     2 1   
     2     2     3 1   
     3     2     4 1   
     4     4     5 1   
     5     4     9 1   
     6     4    27 1   
     7     5     6 1   
     8     5     7 1   
     9     5     8 1   
    10     6    28 1   
    11     6    29 1   
    12     6    30 1   
    13     7    31 1   
    14     7    32 1   
    15     7    33 1   
    16     8    10 1   
    17     9    10 1   
    18     9    11 1   
    19    10    13 1   
    20    10    34 1   
    21    11    12 1   
    22    11    13 1   
    23    11    35 1   
    24    12    36 1   
    25    13    14 1   
    26    13    37 1   
    27    14    15 1   
    28    14    38 1   
    29    14    45 1   
    30    15    16 2   
    31    15    17 1   
    32    17    18 1   
    33    17    21 1   
    34    17    39 1   
    35    18    19 1   
    36    18    20 1   
    37    21    22 ar  
    38    21    23 ar  
    39    22    26 ar  
    40    22    40 1   
    41    23    24 ar  
    42    23    41 1   
    43    24    25 ar  
    44    24    42 1   
    45    25    26 ar  
    46    25    43 1   
    47    26    44 1   
@<TRIPOS>SUBSTRUCTURE
     1 0JM         1 TEMP              0 ****  ****    0 ROOT
