@<TRIPOS>MOLECULE
0JN
   46    49     1     0     0
SMALL
bcc


@<TRIPOS>ATOM
      1 N1           0.0000     0.0000     0.0000 nb         1 0JN      -0.723000
      2 C2           1.3210     0.0000     0.0000 ca         1 0JN       0.693900
      3 N3           2.0300     0.0000     1.1080 nb         1 0JN      -0.676000
      4 C4           1.4320     0.0010     2.2980 ca         1 0JN       0.333800
      5 C5           0.0240     0.0010     2.3510 ca         1 0JN      -0.531500
      6 C6          -0.6880     0.0010     1.1360 ca         1 0JN       0.616200
      7 CAA          3.9690     1.2500     3.4820 c3         1 0JN      -0.013100
      8 CAB          3.3300     0.0030     5.5500 c3         1 0JN      -0.013100
      9 CAE         -1.2170    -3.1680     8.2350 ca         1 0JN      -0.098000
     10 CAF         -0.8210    -1.8600     7.9630 ca         1 0JN      -0.100000
     11 CAG         -3.2600    -3.4430     3.9180 ca         1 0JN      -0.101000
     12 CAH         -2.8640    -2.1350     3.6470 ca         1 0JN      -0.102000
     13 CAI         -1.9150    -3.8930     7.3190 ca         1 0JN      -0.092000
     14 CAJ         -2.9610    -4.0340     5.1070 ca         1 0JN      -0.086000
     15 CAR         -2.1660    -1.4100     4.5640 ca         1 0JN      -0.075300
     16 CAS         -0.3380     0.0030     3.7140 cc         1 0JN       0.428900
     17 CAT         -2.2430    -3.3170     6.0790 ca         1 0JN      -0.034000
     18 NAX          1.8700     0.0020     3.5880 na         1 0JN       0.396200
     19 CAY          3.2690     0.0020     4.0210 c3         1 0JN      -0.045300
     20 CAC          3.9690    -1.2480     3.4840 c3         1 0JN      -0.013100
     21 NAP          0.7500     0.0030     4.4310 nd         1 0JN      -0.631100
     22 NAD         -2.0700     0.0020     1.1260 nv         1 0JN      -0.582500
     23 CAM         -1.7460     0.0030     4.2510 c3         1 0JN       0.027600
     24 CAU         -1.8380    -1.9860     5.8030 ca         1 0JN      -0.022000
     25 CAK         -1.1190    -1.2690     6.7740 ca         1 0JN      -0.089000
     26 H1           1.8410    -0.0010    -0.9500 h5         1 0JN      -0.004900
     27 H2           3.3530     2.1210     3.6730 hc         1 0JN       0.019700
     28 H3           4.1240     1.1450     2.4150 hc         1 0JN       0.019700
     29 H4           4.9260     1.3700     3.9760 hc         1 0JN       0.019700
     30 H5           2.7830     0.8560     5.9320 hc         1 0JN       0.019700
     31 H6           2.8870    -0.9100     5.9290 hc         1 0JN       0.019700
     32 H7           4.3630     0.0630     5.8700 hc         1 0JN       0.019700
     33 H9          -0.2660    -1.3050     8.7100 ha         1 0JN       0.101000
     34 H10         -3.8150    -3.9980     3.1710 ha         1 0JN       0.101000
     35 H11         -3.1150    -1.6890     2.6930 ha         1 0JN       0.103000
     36 H12         -2.2170    -4.9090     7.5440 ha         1 0JN       0.105000
     37 H13         -3.2760    -5.0520     5.3040 ha         1 0JN       0.105000
     38 H14          3.3470    -2.1160     3.6650 hc         1 0JN       0.019700
     39 H15          4.1340    -1.1390     2.4190 hc         1 0JN       0.019700
     40 H16          4.9200    -1.3730     3.9860 hc         1 0JN       0.019700
     41 H17         -2.5660    -0.6550     0.5560 hn         1 0JN       0.281300
     42 H18         -2.5730     0.7020     1.6350 hn         1 0JN       0.281300
     43 H19         -1.7870     0.6000     5.1540 hc         1 0JN       0.030200
     44 H20         -2.4150     0.4230     3.5100 hc         1 0JN       0.030200
     45 H21         -0.8040    -0.2510     6.5780 ha         1 0JN       0.125000
     46 H8          -0.9660    -3.6140     9.1900 ha         1 0JN       0.100000
@<TRIPOS>BOND
     1     1     2 ar  
     2     1     6 ar  
     3     2     3 ar  
     4     2    26 1   
     5     3     4 ar  
     6     4     5 ar  
     7     4    18 1   
     8     5     6 ar  
     9     5    16 1   
    10     6    22 1   
    11     7    19 1   
    12     7    27 1   
    13     7    28 1   
    14     7    29 1   
    15     8    19 1   
    16     8    30 1   
    17     8    31 1   
    18     8    32 1   
    19     9    10 ar  
    20     9    13 ar  
    21     9    46 1   
    22    10    25 ar  
    23    10    33 1   
    24    11    12 ar  
    25    11    14 ar  
    26    11    34 1   
    27    12    15 ar  
    28    12    35 1   
    29    13    17 ar  
    30    13    36 1   
    31    14    17 ar  
    32    14    37 1   
    33    15    23 1   
    34    15    24 ar  
    35    16    21 2   
    36    16    23 1   
    37    17    24 ar  
    38    18    19 1   
    39    18    21 1   
    40    19    20 1   
    41    20    38 1   
    42    20    39 1   
    43    20    40 1   
    44    22    41 1   
    45    22    42 1   
    46    23    43 1   
    47    23    44 1   
    48    24    25 ar  
    49    25    45 1   
@<TRIPOS>SUBSTRUCTURE
     1 0JN         1 TEMP              0 ****  ****    0 ROOT
