@<TRIPOS>MOLECULE
molecule
   46    49     1     0     0
SMALL
bcc


@<TRIPOS>ATOM
      1 N1           0.0000     0.0000     0.0000 nb         1 0JN      -0.823000
      2 C2           1.3210     0.0000     0.0000 ca         1 0JN       0.741900
      3 N3           2.0300     0.0000     1.1080 nb         1 0JN      -0.793000
      4 C4           1.4320     0.0010     2.2980 ca         1 0JN       0.522800
      5 C5           0.0240     0.0010     2.3510 ca         1 0JN      -0.517500
      6 C6          -0.6880     0.0010     1.1360 ca         1 0JN       0.787200
      7 CAA          3.9690     1.2500     3.4820 c3         1 0JN      -0.100100
      8 CAB          3.3300     0.0030     5.5500 c3         1 0JN      -0.100100
      9 CAE         -1.2170    -3.1680     8.2350 ca         1 0JN      -0.125000
     10 CAF         -0.8210    -1.8600     7.9630 ca         1 0JN      -0.127000
     11 CAG         -3.2600    -3.4430     3.9180 ca         1 0JN      -0.128000
     12 CAH         -2.8640    -2.1350     3.6470 ca         1 0JN      -0.116000
     13 CAI         -1.9150    -3.8930     7.3190 ca         1 0JN      -0.118000
     14 CAJ         -2.9610    -4.0340     5.1070 ca         1 0JN      -0.112000
     15 CAR         -2.1660    -1.4100     4.5640 ca         1 0JN      -0.071300
     16 CAS         -0.3380     0.0030     3.7140 cc         1 0JN       0.400900
     17 CAT         -2.2430    -3.3170     6.0790 ca         1 0JN      -0.034000
     18 NAX          1.8700     0.0020     3.5880 na         1 0JN      -0.015800
     19 CAY          3.2690     0.0020     4.0210 c3         1 0JN       0.094700
     20 CAC          3.9690    -1.2480     3.4840 c3         1 0JN      -0.100100
     21 NAP          0.7500     0.0030     4.4310 nd         1 0JN      -0.503100
     22 NAD         -2.0700     0.0020     1.1260 nv         1 0JN      -1.042500
     23 CAM         -1.7460     0.0030     4.2510 c3         1 0JN      -0.031400
     24 CAU         -1.8380    -1.9860     5.8030 ca         1 0JN      -0.025000
     25 CAK         -1.1190    -1.2690     6.7740 ca         1 0JN      -0.109000
     26 H1           1.8410    -0.0010    -0.9500 h5         1 0JN       0.059100
     27 H2           3.3530     2.1210     3.6730 hc         1 0JN       0.050700
     28 H3           4.1240     1.1450     2.4150 hc         1 0JN       0.050700
     29 H4           4.9260     1.3700     3.9760 hc         1 0JN       0.050700
     30 H5           2.7830     0.8560     5.9320 hc         1 0JN       0.050700
     31 H6           2.8870    -0.9100     5.9290 hc         1 0JN       0.050700
     32 H7           4.3630     0.0630     5.8700 hc         1 0JN       0.050700
     33 H9          -0.2660    -1.3050     8.7100 ha         1 0JN       0.128000
     34 H10         -3.8150    -3.9980     3.1710 ha         1 0JN       0.128000
     35 H11         -3.1150    -1.6890     2.6930 ha         1 0JN       0.129000
     36 H12         -2.2170    -4.9090     7.5440 ha         1 0JN       0.131000
     37 H13         -3.2760    -5.0520     5.3040 ha         1 0JN       0.132000
     38 H14          3.3470    -2.1160     3.6650 hc         1 0JN       0.050700
     39 H15          4.1340    -1.1390     2.4190 hc         1 0JN       0.050700
     40 H16          4.9200    -1.3730     3.9860 hc         1 0JN       0.050700
     41 H17         -2.5660    -0.6550     0.5560 hn         1 0JN       0.442800
     42 H18         -2.5730     0.7020     1.6350 hn         1 0JN       0.442800
     43 H19         -1.7870     0.6000     5.1540 hc         1 0JN       0.062200
     44 H20         -2.4150     0.4230     3.5100 hc         1 0JN       0.062200
     45 H21         -0.8040    -0.2510     6.5780 ha         1 0JN       0.144000
     46 H8          -0.9660    -3.6140     9.1900 ha         1 0JN       0.127000
@<TRIPOS>BOND
     1     9    13 ar
     2     9    10 ar
     3    13    17 ar
     4    10    25 ar
     5    17    14 ar
     6    17    24 ar
     7    25    24 ar
     8    14    11 ar
     9    24    15 ar
    10     7    19 1
    11     8    19 1
    12    11    12 ar
    13    19    18 1
    14    19    20 1
    15    15    12 ar
    16    15    23 1
    17    21    18 1
    18    21    16 2
    19    18     4 1
    20    16    23 1
    21    16     5 1
    22     4     3 ar
    23     4     5 ar
    24     3     2 ar
    25     5     6 ar
    26     2     1 ar
    27     6     1 ar
    28     6    22 1
    29     2    26 1
    30     7    27 1
    31     7    28 1
    32     7    29 1
    33     8    30 1
    34     8    31 1
    35     8    32 1
    36     9    46 1
    37    10    33 1
    38    11    34 1
    39    12    35 1
    40    13    36 1
    41    14    37 1
    42    20    38 1
    43    20    39 1
    44    20    40 1
    45    22    41 1
    46    22    42 1
    47    23    43 1
    48    23    44 1
    49    25    45 1
@<TRIPOS>SUBSTRUCTURE
     1 0JN         1 TEMP              0 ****  ****    0 ROOT
