@<TRIPOS>MOLECULE
0JN
   46    49     1     0     0
SMALL
bcc


@<TRIPOS>ATOM
      1 N1           0.1590     0.5990     0.1110 nb         1 0JN      -0.799000
      2 C2           1.5060     0.4650     0.2490 ca         1 0JN       0.691900
      3 N3           2.2410     0.2260     1.3540 nb         1 0JN      -0.743000
      4 C4           1.4810     0.1080     2.4890 ca         1 0JN       0.472800
      5 C5           0.0270     0.2330     2.5030 ca         1 0JN      -0.485500
      6 C6          -0.6080     0.4690     1.2440 ca         1 0JN       0.747200
      7 CAA          4.1190     0.8780     4.0010 c3         1 0JN      -0.105100
      8 CAB          3.3010    -0.6090     5.8120 c3         1 0JN      -0.105100
      9 CAE         -1.4250     4.9640     6.0530 ca         1 0JN      -0.121000
     10 CAF         -0.5920     3.8370     6.2430 ca         1 0JN      -0.127000
     11 CAG         -4.6320     2.2110     3.6770 ca         1 0JN      -0.132000
     12 CAH         -3.7760     1.0950     3.8020 ca         1 0JN      -0.154000
     13 CAI         -2.6060     4.8340     5.3660 ca         1 0JN      -0.123000
     14 CAJ         -4.2460     3.4340     4.1630 ca         1 0JN      -0.114000
     15 CAR         -2.5360     1.2020     4.4060 ca         1 0JN      -0.063300
     16 CAS         -0.3380     0.0420     3.8950 cc         1 0JN       0.381900
     17 CAT         -2.9980     3.5770     4.8290 ca         1 0JN      -0.036000
     18 NAX          1.8640    -0.1440     3.8200 na         1 0JN       0.006200
     19 CAY          3.2530    -0.3570     4.2950 c3         1 0JN       0.100700
     20 CAC          3.8810    -1.5770     3.6020 c3         1 0JN      -0.105100
     21 NAP          0.7880    -0.1860     4.6230 nd         1 0JN      -0.527100
     22 NAD         -1.9840     0.4990     1.1430 nv         1 0JN      -0.941500
     23 CAM         -1.6920    -0.0260     4.5070 c3         1 0JN      -0.053400
     24 CAU         -2.1430     2.4510     4.9790 ca         1 0JN      -0.025000
     25 CAK         -0.9430     2.6150     5.7240 ca         1 0JN      -0.113000
     26 H1           2.0820     0.5730    -0.6960 h5         1 0JN       0.050100
     27 H2           3.6940     1.7860     4.4890 hc         1 0JN       0.051589
     28 H3           5.1420     0.6970     4.4120 hc         1 0JN       0.051589
     29 H4           4.2080     1.0610     2.9040 hc         1 0JN       0.051589
     30 H5           2.7230    -1.5220     6.0860 hc         1 0JN       0.051589
     31 H6           2.8940     0.2630     6.3770 hc         1 0JN       0.051589
     32 H7           4.3680    -0.7590     6.1090 hc         1 0JN       0.051589
     33 H9           0.3410     3.9510     6.8160 ha         1 0JN       0.134000
     34 H10         -5.6080     2.0820     3.1850 ha         1 0JN       0.135000
     35 H11         -4.1230     0.1240     3.4110 ha         1 0JN       0.134000
     36 H12         -3.2730     5.6970     5.2220 ha         1 0JN       0.133000
     37 H13         -4.8940     4.3170     4.0590 ha         1 0JN       0.135000
     38 H14          4.9070    -1.7280     4.0150 hc         1 0JN       0.051589
     39 H15          3.9640    -1.4210     2.5010 hc         1 0JN       0.051589
     40 H16          3.2790    -2.4960     3.7950 hc         1 0JN       0.051589
     41 H17         -2.4800     0.7130     1.9770 hn         1 0JN       0.430800
     42 H18         -2.3850     0.8170     0.2910 hn         1 0JN       0.430800
     43 H19         -2.2250    -0.8880     4.0110 hc         1 0JN       0.071700
     44 H20         -1.6020    -0.2860     5.6020 hc         1 0JN       0.071700
     45 H21         -0.2980     1.7400     5.8960 ha         1 0JN       0.151000
     46 H8          -1.1190     5.9350     6.4680 ha         1 0JN       0.133000
@<TRIPOS>BOND
     1     1     2 ar  
     2     1     6 ar  
     3     2     3 ar  
     4     2    26 1   
     5     3     4 ar  
     6     4     5 ar  
     7     4    18 1   
     8     5     6 ar  
     9     5    16 1   
    10     6    22 1   
    11     7    19 1   
    12     7    27 1   
    13     7    28 1   
    14     7    29 1   
    15     8    19 1   
    16     8    30 1   
    17     8    31 1   
    18     8    32 1   
    19     9    10 ar  
    20     9    13 ar  
    21     9    46 1   
    22    10    25 ar  
    23    10    33 1   
    24    11    12 ar  
    25    11    14 ar  
    26    11    34 1   
    27    12    15 ar  
    28    12    35 1   
    29    13    17 ar  
    30    13    36 1   
    31    14    17 ar  
    32    14    37 1   
    33    15    23 1   
    34    15    24 ar  
    35    16    21 2   
    36    16    23 1   
    37    17    24 ar  
    38    18    19 1   
    39    18    21 1   
    40    19    20 1   
    41    20    38 1   
    42    20    39 1   
    43    20    40 1   
    44    22    41 1   
    45    22    42 1   
    46    23    43 1   
    47    23    44 1   
    48    24    25 ar  
    49    25    45 1   
@<TRIPOS>SUBSTRUCTURE
     1 0JN         1 TEMP              0 ****  ****    0 ROOT
