@<TRIPOS>MOLECULE
0JO
   31    32     1     0     0
SMALL
bcc


@<TRIPOS>ATOM
      1 O            0.0000     0.0000     0.0000 o          1 0JO      -0.594000
      2 C            1.2150     0.0000     0.0000 c2         1 0JO       0.424000
      3 OXT          1.8890     0.0000     1.1650 o          1 0JO      -0.594000
      4 CA           1.9530    -0.0040    -1.2810 c2         1 0JO      -0.041000
      5 CB           3.2950     0.0910    -1.2840 c2         1 0JO      -0.312000
      6 N            1.2710    -0.1050    -2.4630 n2         1 0JO      -0.041000
      7 C4A          0.2350     0.6530    -2.6840 c2         1 0JO      -0.083000
      8 C4          -0.5670     0.4660    -3.9050 c3         1 0JO      -0.219000
      9 C3          -0.2360    -0.5290    -4.8420 c2         1 0JO       0.018000
     10 O3           0.8320    -1.3410    -4.6400 oh         1 0JO      -0.219000
     11 C2          -1.0230    -0.6670    -5.9770 c2         1 0JO      -0.187000
     12 C2A         -0.6850    -1.7270    -6.9920 c3         1 0JO      -0.040000
     13 N1          -2.0620     0.1180    -6.1760 n2         1 0JO      -0.073000
     14 C6          -2.4040     1.0620    -5.3220 c2         1 0JO      -0.094000
     15 C5          -1.6850     1.2700    -4.1640 c2         1 0JO      -0.005000
     16 C5A         -2.0910     2.3490    -3.1940 c3         1 0JO       0.152000
     17 OP4         -3.2540     3.0200    -3.6870 os         1 0JO      -0.650000
     18 P           -3.9650     4.2330    -2.9030 p5         1 0JO       0.904500
     19 OP3         -2.9710     5.2960    -2.6320 o          1 0JO      -0.755833
     20 OP1         -5.1570     4.8290    -3.8060 o          1 0JO      -0.755833
     21 OP2         -4.5660     3.6920    -1.5090 o          1 0JO      -0.755833
     22 H2           3.8340     0.1710    -0.3480 ha         1 0JO       0.078000
     23 H3           3.8360     0.0880    -2.2220 ha         1 0JO       0.078000
     24 H4           0.5260     1.0840    -3.6350 DU         1 0JO       0.222000
     25 H5           1.5290    -1.0960    -5.2260 ho         1 0JO       0.164000
     26 H6          -0.6130    -2.6890    -6.4990 hc         1 0JO       0.028000
     27 H7          -1.4610    -1.7650    -7.7470 hc         1 0JO       0.028000
     28 H8           0.2630    -1.4900    -7.4600 hc         1 0JO       0.028000
     29 H9          -3.2690     1.6810    -5.5300 h4         1 0JO       0.173000
     30 H10         -1.2820     3.0610    -3.0860 h1         1 0JO       0.061500
     31 H11         -2.3120     1.9050    -2.2310 h1         1 0JO       0.061500
@<TRIPOS>BOND
     1     1     2 1   
     2     2     3 1   
     3     2     4 1   
     4     4     5 1   
     5     4     6 1   
     6     5    22 1   
     7     5    23 1   
     8     6     7 1   
     9     7     8 1   
    10     7    24 1   
    11     8     9 1   
    12     8    15 1   
    13     8    24 1   
    14     9    10 1   
    15     9    11 1   
    16    10    25 1   
    17    11    12 1   
    18    11    13 1   
    19    12    26 1   
    20    12    27 1   
    21    12    28 1   
    22    13    14 1   
    23    14    15 1   
    24    14    29 1   
    25    15    16 1   
    26    16    17 1   
    27    16    30 1   
    28    16    31 1   
    29    17    18 1   
    30    18    19 1   
    31    18    20 1   
    32    18    21 1   
@<TRIPOS>SUBSTRUCTURE
     1 0JO         1 TEMP              0 ****  ****    0 ROOT
