@<TRIPOS>MOLECULE
0JO
   31    31     1     0     0
SMALL
bcc


@<TRIPOS>ATOM
      1 O           -0.1450    -1.6340     0.0450 o          1 0JO      -0.846300
      2 C            0.9370    -1.0260     0.2930 c          1 0JO       0.922800
      3 OXT          1.4110    -0.8900     1.4550 o          1 0JO      -0.846300
      4 CA           1.6720    -0.3710    -0.8920 ce         1 0JO       0.059400
      5 CB           0.9520     0.3430    -1.7810 c2         1 0JO      -0.298000
      6 N            3.0540    -0.6200    -1.0010 ne         1 0JO      -0.606300
      7 C4A          3.9030     0.3290    -1.2210 cf         1 0JO       0.491800
      8 C4           5.3570     0.1180    -1.3230 ca         1 0JO      -0.215900
      9 C3           6.0340    -0.8010    -0.4800 ca         1 0JO       0.026800
     10 O3           5.4330    -1.5960     0.4680 oh         1 0JO      -0.539100
     11 C2           7.4410    -0.9310    -0.5650 ca         1 0JO       0.291600
     12 C2A          8.1130    -1.9030     0.3460 c3         1 0JO      -0.104400
     13 N1           8.1800    -0.2030    -1.4480 nb         1 0JO      -0.674000
     14 C6           7.5400     0.6540    -2.2410 ca         1 0JO       0.354200
     15 C5           6.1280     0.8620    -2.2250 ca         1 0JO      -0.128600
     16 C5A          5.5860     1.8550    -3.2290 c3         1 0JO       0.245700
     17 OP4          6.3540     2.9880    -3.3130 os         1 0JO      -0.563200
     18 P            7.2340     3.2130    -4.7950 p5         1 0JO       1.316900
     19 OP3          6.2930     2.6260    -5.8130 o          1 0JO      -0.924833
     20 OP1          7.4330     4.7000    -4.8440 o          1 0JO      -0.924833
     21 OP2          8.4650     2.3830    -4.5140 o          1 0JO      -0.924833
     22 H2          -0.1380     0.3990    -1.6860 ha         1 0JO       0.099500
     23 H3           1.3900     0.8610    -2.6420 ha         1 0JO       0.099500
     24 H4           3.6030     1.3960    -1.3420 h4         1 0JO      -0.013200
     25 H5           4.4750    -1.4370     0.4590 ho         1 0JO       0.454000
     26 H6           7.6890    -2.9240     0.1760 hc         1 0JO       0.018700
     27 H7           9.2180    -1.9400     0.1890 hc         1 0JO       0.018700
     28 H8           7.9070    -1.6190     1.4080 hc         1 0JO       0.018700
     29 H9           8.1360     1.2730    -2.9940 h4         1 0JO       0.150100
     30 H10          5.5320     1.3350    -4.2350 h1         1 0JO       0.020200
     31 H11          4.5350     2.1420    -2.9210 h1         1 0JO       0.020200
@<TRIPOS>BOND
     1     1     2 1   
     2     2     3 1   
     3     2     4 1   
     4     4     5 2   
     5     4     6 1   
     6     5    22 1   
     7     5    23 1   
     8     6     7 2   
     9     7     8 1   
    10     7    24 1   
    11     8     9 ar  
    12     8    15 ar  
    13     9    10 1   
    14     9    11 ar  
    15    10    25 1   
    16    11    12 1   
    17    11    13 ar  
    18    12    26 1   
    19    12    27 1   
    20    12    28 1   
    21    13    14 ar  
    22    14    15 ar  
    23    14    29 1   
    24    15    16 1   
    25    16    17 1   
    26    16    30 1   
    27    16    31 1   
    28    17    18 1   
    29    18    19 1   
    30    18    20 1   
    31    18    21 1   
@<TRIPOS>SUBSTRUCTURE
     1 0JO         1 TEMP              0 ****  ****    0 ROOT
