@<TRIPOS>MOLECULE
molecule
   31    31     1     0     0
SMALL
bcc


@<TRIPOS>ATOM
      1 O            0.0000     0.0000     0.0000 o          1 0JO      -0.833300
      2 C            1.2150     0.0000     0.0000 c          1 0JO       0.867800
      3 OXT          1.8890     0.0000     1.1650 o          1 0JO      -0.833300
      4 CA           1.9530    -0.0040    -1.2810 ce         1 0JO       0.064400
      5 CB           3.2950     0.0910    -1.2840 c2         1 0JO      -0.271000
      6 N            1.2710    -0.1050    -2.4630 ne         1 0JO      -0.605300
      7 C4A          0.2350     0.6530    -2.6840 cf         1 0JO       0.498800
      8 C4          -0.5670     0.4660    -3.9050 ca         1 0JO      -0.138900
      9 C3          -0.2360    -0.5290    -4.8420 ca         1 0JO      -0.003200
     10 O3           0.8320    -1.3410    -4.6400 oh         1 0JO      -0.493100
     11 C2          -1.0230    -0.6670    -5.9770 ca         1 0JO       0.322600
     12 C2A         -0.6850    -1.7270    -6.9920 c3         1 0JO      -0.121400
     13 N1          -2.0620     0.1180    -6.1760 nb         1 0JO      -0.719000
     14 C6          -2.4040     1.0620    -5.3220 ca         1 0JO       0.419200
     15 C5          -1.6850     1.2700    -4.1640 ca         1 0JO      -0.129600
     16 C5A         -2.0910     2.3490    -3.1940 c3         1 0JO       0.242700
     17 OP4         -3.2540     3.0200    -3.6870 os         1 0JO      -0.590200
     18 P           -3.9650     4.2330    -2.9030 p5         1 0JO       1.182900
     19 OP3         -2.9710     5.2960    -2.6320 o          1 0JO      -0.911500
     20 OP1         -5.1570     4.8290    -3.8060 o          1 0JO      -0.911500
     21 OP2         -4.5660     3.6920    -1.5090 o          1 0JO      -0.911500
     22 H2           3.8360     0.0880    -2.2220 ha         1 0JO       0.096000
     23 H3           3.8340     0.1710    -0.3480 ha         1 0JO       0.096000
     24 H4          -0.0850     1.3640    -1.9320 h4         1 0JO       0.035800
     25 H5           1.5520    -1.0530    -5.1770 ho         1 0JO       0.392000
     26 H6          -1.4590    -1.7620    -7.7490 hc         1 0JO       0.025700
     27 H7          -0.6170    -2.6900    -6.5000 hc         1 0JO       0.025700
     28 H8           0.2650    -1.4920    -7.4570 hc         1 0JO       0.025700
     29 H9          -3.2690     1.6810    -5.5300 h4         1 0JO       0.073100
     30 H10         -2.3120     1.9050    -2.2310 h1         1 0JO       0.051700
     31 H11         -1.2820     3.0610    -3.0860 h1         1 0JO       0.051700
@<TRIPOS>BOND
     1     1     2 1
     2     3     2 1
     3     2     4 1
     4     4     5 2
     5     4     6 1
     6    10     9 1
     7     6     7 2
     8     7     8 1
     9     9     8 ar
    10     9    11 ar
    11    12    11 1
    12     8    15 ar
    13    11    13 ar
    14    19    18 1
    15    15    16 1
    16    15    14 ar
    17    13    14 ar
    18    17    16 1
    19    17    18 1
    20    20    18 1
    21    18    21 1
    22     5    22 1
    23     5    23 1
    24     7    24 1
    25    10    25 1
    26    12    26 1
    27    12    27 1
    28    12    28 1
    29    14    29 1
    30    16    30 1
    31    16    31 1
@<TRIPOS>SUBSTRUCTURE
     1 0JO         1 TEMP              0 ****  ****    0 ROOT
