@<TRIPOS>MOLECULE
0JP
   37    40     1     0     0
SMALL
bcc


@<TRIPOS>ATOM
      1 C17          0.0280    -0.0100    -0.0860 ca         1 0JP      -0.162000
      2 C2           1.2740     0.1560     2.4230 ca         1 0JP      -0.177000
      3 C11          0.0580    -1.7960    -2.7090 cc         1 0JP       0.314200
      4 C7           4.1510     0.4540    -2.3630 cc         1 0JP       0.413400
      5 C13         -0.8440    -1.4800    -4.7040 cd         1 0JP       0.334300
      6 C16          1.4260     0.0550    -0.0010 ca         1 0JP      -0.004000
      7 C3           2.0490     0.1550     1.2570 ca         1 0JP      -0.080300
      8 C18         -0.7450    -0.0150     1.0720 ca         1 0JP       0.109100
      9 C1          -0.1140     0.0650     2.3440 ca         1 0JP       0.110100
     10 C9           2.0760    -0.2710    -2.5540 cd         1 0JP       0.386800
     11 C15          2.2590     0.0660    -1.1860 cc         1 0JP      -0.115600
     12 C10          0.9270    -0.8210    -3.2070 cd         1 0JP      -0.205900
     13 C4           3.5320     0.2320     1.3670 c3         1 0JP      -0.043100
     14 C5           4.1890     0.9070     0.1570 c3         1 0JP       0.043300
     15 C22         -2.7610    -0.2660    -0.1610 c3         1 0JP       0.106700
     16 C21         -0.3510     0.1230     4.7090 c3         1 0JP       0.109700
     17 N12         -0.9600    -2.1650    -3.5660 nc         1 0JP      -0.632000
     18 N8           3.2630    -0.0070    -3.2640 nd         1 0JP      -0.665000
     19 N6           3.5910     0.5160    -1.0860 na         1 0JP      -0.206900
     20 O19         -2.1220    -0.0820     1.0990 os         1 0JP      -0.303900
     21 O20         -0.9680     0.0540     3.4280 os         1 0JP      -0.299900
     22 S14          0.4620    -0.3980    -4.7740 ss         1 0JP      -0.029300
     23 H17         -0.4480    -0.0490    -1.0780 ha         1 0JP       0.161000
     24 H2           1.7740     0.2270     3.4000 ha         1 0JP       0.140000
     25 H11          0.1300    -2.2770    -1.7260 h4         1 0JP       0.050100
     26 H7           5.1830     0.7500    -2.5750 h5         1 0JP       0.065100
     27 H13         -1.5490    -1.6270    -5.5270 h5         1 0JP       0.052100
     28 H42          3.9360    -0.8110     1.4780 hc         1 0JP       0.064200
     29 H41          3.8280     0.8090     2.2820 hc         1 0JP       0.064200
     30 H52          5.2850     0.6470     0.1340 h1         1 0JP       0.059700
     31 H51          4.0960     2.0280     0.2620 h1         1 0JP       0.059700
     32 H223        -2.6030     0.6270    -0.8130 h1         1 0JP       0.049033
     33 H221        -2.3920    -1.1910    -0.6660 h1         1 0JP       0.049033
     34 H222        -3.8420    -0.3680     0.1130 h1         1 0JP       0.049033
     35 H213        -1.2210     0.0880     5.4140 h1         1 0JP       0.044367
     36 H212         0.2130     1.0800     4.8260 h1         1 0JP       0.044367
     37 H211         0.3230    -0.7530     4.8720 h1         1 0JP       0.044367
@<TRIPOS>BOND
     1     1     6 ar  
     2     1     8 ar  
     3     1    23 1   
     4     2     7 ar  
     5     2     9 ar  
     6     2    24 1   
     7     3    12 2   
     8     3    17 1   
     9     3    25 1   
    10     4    18 2   
    11     4    19 1   
    12     4    26 1   
    13     5    17 2   
    14     5    22 1   
    15     5    27 1   
    16     6     7 ar  
    17     6    11 1   
    18     7    13 1   
    19     8     9 ar  
    20     8    20 1   
    21     9    21 1   
    22    10    11 2   
    23    10    12 1   
    24    10    18 1   
    25    11    19 1   
    26    12    22 1   
    27    13    14 1   
    28    13    28 1   
    29    13    29 1   
    30    14    19 1   
    31    14    30 1   
    32    14    31 1   
    33    15    20 1   
    34    15    32 1   
    35    15    33 1   
    36    15    34 1   
    37    16    21 1   
    38    16    35 1   
    39    16    36 1   
    40    16    37 1   
@<TRIPOS>SUBSTRUCTURE
     1 0JP         1 TEMP              0 ****  ****    0 ROOT
