@<TRIPOS>MOLECULE
molecule
   37    40     1     0     0
SMALL
bcc


@<TRIPOS>ATOM
      1 C17          0.0000     0.0000     0.0000 ca         1 0JP      -0.175000
      2 C2           1.4120    -0.0370     2.3990 ca         1 0JP      -0.183000
      3 C11         -0.3210     1.4920    -2.5280 cc         1 0JP       0.349200
      4 C7           3.9770    -0.2650    -2.4790 cc         1 0JP       0.420400
      5 C13         -1.6150     0.9060    -4.2420 cc         1 0JP       0.415300
      6 C16          1.3880     0.0000     0.0000 ca         1 0JP      -0.005000
      7 C3           2.1050     0.0000     1.2080 ca         1 0JP      -0.091300
      8 C18         -0.6840    -0.0230     1.2040 ca         1 0JP       0.124100
      9 C1           0.0250    -0.0480     2.4020 ca         1 0JP       0.119100
     10 C9           1.8580     0.2220    -2.5460 cd         1 0JP       0.412800
     11 C15          2.1800    -0.0160    -1.2400 cc         1 0JP      -0.149600
     12 C10          0.5250     0.5870    -3.0680 cd         1 0JP      -0.148900
     13 C4           3.6070     0.0550     1.2030 c3         1 0JP      -0.041100
     14 C5           4.2180    -0.7010     0.0250 c3         1 0JP       0.046300
     15 C22         -2.7040     0.0040    -0.0510 c3         1 0JP       0.121700
     16 C21          0.1400    -0.1070     4.7770 c3         1 0JP       0.126700
     17 N12         -1.4520     1.6290    -3.1850 nd         1 0JP      -0.683000
     18 N8           2.9880     0.0620    -3.2720 nd         1 0JP      -0.689000
     19 N6           3.5290    -0.3410    -1.2140 na         1 0JP      -0.188900
     20 O19         -2.0440    -0.0230     1.2160 os         1 0JP      -0.311900
     21 O20         -0.6460    -0.0830     3.5840 os         1 0JP      -0.309900
     22 S14         -0.2450    -0.0810    -4.5060 ss         1 0JP      -0.162300
     23 H17         -0.5450     0.0190    -0.9360 ha         1 0JP       0.164000
     24 H2           1.9540    -0.0560     3.3370 ha         1 0JP       0.141000
     25 H11         -0.0900     2.0530    -1.6310 h4         1 0JP       0.055100
     26 H7           4.9960    -0.4540    -2.7950 h5         1 0JP       0.067100
     27 H13         -2.4960     0.9220    -4.8730 h5         1 0JP       0.060100
     28 H42          3.8960     1.0950     1.1090 hc         1 0JP       0.066700
     29 H41          3.9540    -0.4210     2.1120 hc         1 0JP       0.066700
     30 H52          4.1190    -1.7660     0.1940 h1         1 0JP       0.061700
     31 H51          5.2670    -0.4420    -0.0600 h1         1 0JP       0.061700
     32 H223        -2.4970     0.9450    -0.5460 h1         1 0JP       0.046367
     33 H221        -3.7730    -0.0990     0.0960 h1         1 0JP       0.046367
     34 H222        -2.3440    -0.8140    -0.6630 h1         1 0JP       0.046367
     35 H213         0.7520     0.7850     4.8240 h1         1 0JP       0.040367
     36 H212         0.7780    -0.9830     4.7720 h1         1 0JP       0.040367
     37 H211        -0.5140    -0.1420     5.6400 h1         1 0JP       0.040367
@<TRIPOS>BOND
     1     5    22 1
     2     5    17 2
     3    22    12 1
     4    17     3 1
     5    12     3 2
     6    12    10 1
     7    18    10 1
     8    18     4 2
     9    10    11 2
    10     4    19 1
    11    11    19 1
    12    11     6 1
    13    15    20 1
    14    19    14 1
    15     1     6 ar
    16     1     8 ar
    17     6     7 ar
    18    20     8 1
    19     8     9 ar
    20    14    13 1
    21     7    13 1
    22     7     2 ar
    23     9     2 ar
    24     9    21 1
    25    21    16 1
    26     1    23 1
    27     2    24 1
    28     3    25 1
    29     4    26 1
    30     5    27 1
    31    13    28 1
    32    13    29 1
    33    14    30 1
    34    14    31 1
    35    15    32 1
    36    15    33 1
    37    15    34 1
    38    16    35 1
    39    16    36 1
    40    16    37 1
@<TRIPOS>SUBSTRUCTURE
     1 0JP         1 TEMP              0 ****  ****    0 ROOT
