@<TRIPOS>MOLECULE
0JQ
   61    64     1     0     0
SMALL
bcc


@<TRIPOS>ATOM
      1 C11         -0.2300    -0.2690    -0.0420 c3         1 0JQ       0.106700
      2 O2           1.1840    -0.4450    -0.0640 os         1 0JQ      -0.300900
      3 C9           1.8380    -0.2240     1.1280 ca         1 0JQ       0.121100
      4 C5           1.2340     0.1410     2.3090 ca         1 0JQ      -0.223300
      5 C6           3.2670    -0.4010     1.0630 ca         1 0JQ       0.139100
      6 O1           3.7420    -0.7520    -0.1790 os         1 0JQ      -0.297900
      7 C10          5.1550    -0.8880    -0.2950 c3         1 0JQ       0.107700
      8 C3           4.0400    -0.2200     2.1890 ca         1 0JQ      -0.198000
      9 C1           3.4380     0.1440     3.4190 ca         1 0JQ      -0.094300
     10 C2           2.0240     0.3400     3.4810 ca         1 0JQ       0.325600
     11 N1           1.4040     0.7310     4.6790 nb         1 0JQ      -0.285000
     12 N2           2.0680     0.9220     5.7160 nb         1 0JQ      -0.297000
     13 C7           3.4450     0.7500     5.7480 ca         1 0JQ       0.312200
     14 C4           4.1710     0.3520     4.6300 cp         1 0JQ      -0.081300
     15 C8           5.6120     0.1650     4.7180 cp         1 0JQ      -0.172300
     16 C12          6.2330    -1.0300     4.3410 ca         1 0JQ      -0.084000
     17 C13          7.6180    -1.1750     4.4730 ca         1 0JQ      -0.169600
     18 C16          8.2670    -2.4490     4.0930 c3         1 0JQ      -0.041800
     19 C15          6.4350     1.1940     5.2310 ca         1 0JQ       0.422200
     20 N3           7.7620     1.0940     5.3600 nb         1 0JQ      -0.693000
     21 C14          8.3690    -0.0760     4.9940 ca         1 0JQ       0.593200
     22 N4           9.7910    -0.2480     5.1540 nh         1 0JQ      -0.722300
     23 C24         10.3290     0.3100     6.3940 c3         1 0JQ       0.172300
     24 C23         11.8150    -0.0070     6.5570 c3         1 0JQ      -0.075400
     25 C20         10.5320     0.1990     3.9750 c3         1 0JQ       0.172300
     26 C21         12.0310    -0.0890     4.0820 c3         1 0JQ      -0.075400
     27 C22         12.6020     0.5030     5.3590 c3         1 0JQ      -0.053700
     28 C18         14.1110     0.2380     5.5160 c3         1 0JQ       0.154800
     29 C17         14.8750     0.6930     4.2760 c3         1 0JQ      -0.123100
     30 C19         14.4380    -1.2210     5.8120 c3         1 0JQ      -0.123100
     31 O3          14.5010     1.0490     6.6310 oh         1 0JQ      -0.601800
     32 H1          -0.7060    -0.9870     0.6690 h1         1 0JQ       0.049700
     33 H2          -0.5310    -0.4960    -1.0960 h1         1 0JQ       0.049700
     34 H3          -0.4910     0.7830     0.2270 h1         1 0JQ       0.049700
     35 H4           0.1450     0.2870     2.3740 ha         1 0JQ       0.164000
     36 H5           5.6670     0.0730    -0.0460 h1         1 0JQ       0.048700
     37 H6           5.5260    -1.7120     0.3620 h1         1 0JQ       0.048700
     38 H7           5.2990    -1.1470    -1.3750 h1         1 0JQ       0.048700
     39 H8           5.1330    -0.3420     2.1560 ha         1 0JQ       0.154000
     40 H9           3.9210     0.9420     6.7240 h4         1 0JQ       0.037100
     41 H10          5.6280    -1.8650     3.9540 ha         1 0JQ       0.147000
     42 H11          7.5120    -3.2020     3.7580 hc         1 0JQ       0.049700
     43 H12          8.9960    -2.2840     3.2610 hc         1 0JQ       0.049700
     44 H13          8.8290    -2.8730     4.9640 hc         1 0JQ       0.049700
     45 H14          5.9950     2.1590     5.5470 h4         1 0JQ       0.029100
     46 H15         10.1980     1.4300     6.4490 h1         1 0JQ       0.043950
     47 H16          9.7560    -0.1480     7.2470 h1         1 0JQ       0.043950
     48 H17         12.1900     0.4880     7.4890 hc         1 0JQ       0.052950
     49 H18         11.9580    -1.1130     6.6680 hc         1 0JQ       0.052950
     50 H19         10.1190    -0.3510     3.0830 h1         1 0JQ       0.043950
     51 H20         10.3920     1.3050     3.7960 h1         1 0JQ       0.043950
     52 H21         12.2090    -1.1950     4.0560 hc         1 0JQ       0.052950
     53 H22         12.5300     0.3630     3.1850 hc         1 0JQ       0.052950
     54 H23         12.4790     1.6250     5.3160 hc         1 0JQ       0.064700
     55 H24         15.9710     0.7140     4.4890 hc         1 0JQ       0.043200
     56 H25         14.5530     1.7190     3.9780 hc         1 0JQ       0.043200
     57 H26         14.6910    -0.0100     3.4290 hc         1 0JQ       0.043200
     58 H27         15.5410    -1.3840     5.7540 hc         1 0JQ       0.043200
     59 H28         14.0960    -1.4890     6.8410 hc         1 0JQ       0.043200
     60 H29         13.9380    -1.8910     5.0750 hc         1 0JQ       0.043200
     61 H30         15.4420     0.8930     6.7720 ho         1 0JQ       0.398000
@<TRIPOS>BOND
     1     1     2 1   
     2     1    32 1   
     3     1    33 1   
     4     1    34 1   
     5     2     3 1   
     6     3     4 ar  
     7     3     5 ar  
     8     4    10 ar  
     9     4    35 1   
    10     5     6 1   
    11     5     8 ar  
    12     6     7 1   
    13     7    36 1   
    14     7    37 1   
    15     7    38 1   
    16     8     9 ar  
    17     8    39 1   
    18     9    10 ar  
    19     9    14 ar  
    20    10    11 ar  
    21    11    12 ar  
    22    12    13 ar  
    23    13    14 ar  
    24    13    40 1   
    25    14    15 1   
    26    15    16 ar  
    27    15    19 ar  
    28    16    17 ar  
    29    16    41 1   
    30    17    18 1   
    31    17    21 ar  
    32    18    42 1   
    33    18    43 1   
    34    18    44 1   
    35    19    20 ar  
    36    19    45 1   
    37    20    21 ar  
    38    21    22 1   
    39    22    23 1   
    40    22    25 1   
    41    23    24 1   
    42    23    46 1   
    43    23    47 1   
    44    24    27 1   
    45    24    48 1   
    46    24    49 1   
    47    25    26 1   
    48    25    50 1   
    49    25    51 1   
    50    26    27 1   
    51    26    52 1   
    52    26    53 1   
    53    27    28 1   
    54    27    54 1   
    55    28    29 1   
    56    28    30 1   
    57    28    31 1   
    58    29    55 1   
    59    29    56 1   
    60    29    57 1   
    61    30    58 1   
    62    30    59 1   
    63    30    60 1   
    64    31    61 1   
@<TRIPOS>SUBSTRUCTURE
     1 0JQ         1 TEMP              0 ****  ****    0 ROOT
