@<TRIPOS>MOLECULE
0JQ
   61    64     1     0     0
SMALL
bcc


@<TRIPOS>ATOM
      1 C11          0.0000     0.0000     0.0000 c3         1 0JQ       0.239700
      2 O2           1.4300     0.0000     0.0000 os         1 0JQ      -0.291900
      3 C9           2.0460     0.0000     1.2110 ca         1 0JQ       0.144100
      4 C5           1.2930    -0.0060     2.3500 ca         1 0JQ      -0.234300
      5 C6           3.4490     0.0000     1.2720 ca         1 0JQ       0.165100
      6 O1           4.1720     0.0010     0.1230 os         1 0JQ      -0.287900
      7 C10          5.5940     0.0010     0.2510 c3         1 0JQ       0.238700
      8 C3           4.0930     0.0000     2.4770 ca         1 0JQ      -0.221000
      9 C1           3.3460     0.0000     3.6590 ca         1 0JQ      -0.098300
     10 C2           1.9280    -0.0060     3.6020 ca         1 0JQ       0.338600
     11 N1           1.2300    -0.0130     4.7420 nb         1 0JQ      -0.269000
     12 N2           1.8050    -0.0130     5.8890 nb         1 0JQ      -0.283000
     13 C7           3.1200    -0.0070     6.0460 ca         1 0JQ       0.355200
     14 C4           3.9600    -0.0000     4.9380 cp         1 0JQ      -0.106300
     15 C8           5.4320     0.0010     5.0860 cp         1 0JQ      -0.150300
     16 C12          6.0600     0.9220     5.9350 ca         1 0JQ      -0.063000
     17 C13          7.4350     0.8850     6.0420 ca         1 0JQ      -0.167600
     18 C16          8.1570     1.8540     6.9420 c3         1 0JQ       0.074200
     19 C15          6.2140    -0.9190     4.3890 ca         1 0JQ       0.401200
     20 N3           7.5240    -0.9210     4.5180 nb         1 0JQ      -0.601000
     21 C14          8.1500    -0.0600     5.3080 ca         1 0JQ       0.480200
     22 N4           9.5330    -0.1040     5.4100 nh         1 0JQ      -0.515300
     23 C24         10.1650     0.1620     4.1110 c3         1 0JQ       0.153800
     24 C23         11.6820     0.2500     4.2890 c3         1 0JQ      -0.035900
     25 C20          9.9800    -1.3870     5.9640 c3         1 0JQ       0.153800
     26 C21         11.4920    -1.3460     6.1980 c3         1 0JQ      -0.035900
     27 C22         12.2010    -1.0690     4.8700 c3         1 0JQ      -0.045700
     28 C18         13.7090    -0.9650     5.1070 c3         1 0JQ       0.171800
     29 C17         13.9930     0.1720     6.0910 c3         1 0JQ      -0.042100
     30 C19         14.2250    -2.2830     5.6860 c3         1 0JQ      -0.042100
     31 O3          14.3680    -0.6990     3.8670 oh         1 0JQ      -0.588800
     32 H1          -0.3610    -0.9030     0.4780 h1         1 0JQ       0.002033
     33 H2          -0.3610     0.8650     0.5430 h1         1 0JQ       0.002033
     34 H3          -0.3610     0.0380    -1.0210 h1         1 0JQ       0.002033
     35 H4           0.2180    -0.1220     2.2870 ha         1 0JQ       0.144000
     36 H5           5.9120    -0.9020     0.7580 h1         1 0JQ       0.001700
     37 H6           6.0460     0.0410    -0.7320 h1         1 0JQ       0.001700
     38 H7           5.9050     0.8650     0.8270 h1         1 0JQ       0.001700
     39 H8           5.1750     0.0000     2.5170 ha         1 0JQ       0.148000
     40 H9           3.5430    -0.0080     7.0430 h4         1 0JQ      -0.004900
     41 H10          5.5110     1.7800     6.3040 ha         1 0JQ       0.122000
     42 H11          8.7100     1.3050     7.6940 hc         1 0JQ       0.014033
     43 H12          8.8430     2.4510     6.3530 hc         1 0JQ       0.014033
     44 H13          7.4370     2.5030     7.4250 hc         1 0JQ       0.014033
     45 H14          5.7380    -1.6390     3.7340 h4         1 0JQ      -0.007900
     46 H15          9.9300    -0.6430     3.4250 h1         1 0JQ       0.017200
     47 H16          9.7940     1.1000     3.7160 h1         1 0JQ       0.017200
     48 H17         12.1480     0.4290     3.3280 hc         1 0JQ       0.029950
     49 H18         11.9180     1.0610     4.9680 hc         1 0JQ       0.029950
     50 H19          9.7460    -2.1820     5.2660 h1         1 0JQ       0.017200
     51 H20          9.4760    -1.5670     6.9060 h1         1 0JQ       0.017200
     52 H21         11.8220    -2.3000     6.5910 hc         1 0JQ       0.029950
     53 H22         11.7260    -0.5570     6.9030 hc         1 0JQ       0.029950
     54 H23         11.9940    -1.8740     4.1750 hc         1 0JQ       0.039700
     55 H24         13.4750    -0.0180     7.0230 hc         1 0JQ       0.014700
     56 H25         13.6480     1.1090     5.6710 hc         1 0JQ       0.014700
     57 H26         15.0590     0.2310     6.2760 hc         1 0JQ       0.014700
     58 H27         13.9060    -2.3740     6.7170 hc         1 0JQ       0.014700
     59 H28         13.8280    -3.1110     5.1110 hc         1 0JQ       0.014700
     60 H29         15.3070    -2.2990     5.6400 hc         1 0JQ       0.014700
     61 H30         15.3000    -0.7940     3.9800 ho         1 0JQ       0.393000
@<TRIPOS>BOND
     1     1     2 1   
     2     1    32 1   
     3     1    33 1   
     4     1    34 1   
     5     2     3 1   
     6     3     4 ar  
     7     3     5 ar  
     8     4    10 ar  
     9     4    35 1   
    10     5     6 1   
    11     5     8 ar  
    12     6     7 1   
    13     7    36 1   
    14     7    37 1   
    15     7    38 1   
    16     8     9 ar  
    17     8    39 1   
    18     9    10 ar  
    19     9    14 ar  
    20    10    11 ar  
    21    11    12 ar  
    22    12    13 ar  
    23    13    14 ar  
    24    13    40 1   
    25    14    15 1   
    26    15    16 ar  
    27    15    19 ar  
    28    16    17 ar  
    29    16    41 1   
    30    17    18 1   
    31    17    21 ar  
    32    18    42 1   
    33    18    43 1   
    34    18    44 1   
    35    19    20 ar  
    36    19    45 1   
    37    20    21 ar  
    38    21    22 1   
    39    22    23 1   
    40    22    25 1   
    41    23    24 1   
    42    23    46 1   
    43    23    47 1   
    44    24    27 1   
    45    24    48 1   
    46    24    49 1   
    47    25    26 1   
    48    25    50 1   
    49    25    51 1   
    50    26    27 1   
    51    26    52 1   
    52    26    53 1   
    53    27    28 1   
    54    27    54 1   
    55    28    29 1   
    56    28    30 1   
    57    28    31 1   
    58    29    55 1   
    59    29    56 1   
    60    29    57 1   
    61    30    58 1   
    62    30    59 1   
    63    30    60 1   
    64    31    61 1   
@<TRIPOS>SUBSTRUCTURE
     1 0JQ         1 TEMP              0 ****  ****    0 ROOT
