@<TRIPOS>MOLECULE
0JR
   45    45     1     0     0
SMALL
bcc


@<TRIPOS>ATOM
      1 OAE          0.0000     0.0000     0.0000 o          1 0JR      -0.618100
      2 CAU          1.2130     0.0000     0.0000 c          1 0JR       0.538100
      3 CAV          1.9660     0.0000     1.3050 c3         1 0JR       0.133100
      4 OAG          1.0580    -0.2510     2.3790 oh         1 0JR      -0.553800
      5 CAW          2.6330     1.3620     1.5080 c3         1 0JR      -0.074000
      6 CAB          3.2790     1.4120     2.8940 c3         1 0JR       0.004900
      7 CAC          3.7070     1.5690     0.4380 c3         1 0JR       0.004900
      8 CAP          1.5820     2.4670     1.3960 c3         1 0JR       0.221400
      9 OAS          2.2040     3.7390     1.5860 oh         1 0JR      -0.599800
     10 NAR          1.8860    -0.0050    -1.1670 ns         1 0JR      -0.224900
     11 CAN          1.1580     0.0940    -2.4340 c3         1 0JR       0.064000
     12 CAO          2.1510     0.0660    -3.5980 c3         1 0JR      -0.111400
     13 CAT          1.4020     0.1680    -4.9010 c          1 0JR       0.574100
     14 OAD          0.1930     0.2550    -4.8990 o          1 0JR      -0.635100
     15 NAQ          2.0760     0.1630    -6.0680 ns         1 0JR      -0.201900
     16 CAM          1.3480     0.2620    -7.3350 c3         1 0JR       0.121300
     17 CAL          2.3260     0.2340    -8.4810 ca         1 0JR      -0.250600
     18 C2           2.6950    -0.9670    -9.0570 ca         1 0JR       0.421200
     19 N1           3.5510    -0.9990   -10.0600 nb         1 0JR      -0.581000
     20 C6           4.0860     0.1010   -10.5500 ca         1 0JR       0.413200
     21 C5           3.7640     1.3390   -10.0250 ca         1 0JR      -0.223300
     22 C4           2.8630     1.4130    -8.9740 ca         1 0JR      -0.051000
     23 H13          2.7240    -0.7740     1.2850 h1         1 0JR       0.008700
     24 H14          0.9480    -1.1810     2.4880 ho         1 0JR       0.393000
     25 H15          3.8780     2.3100     2.9810 hc         1 0JR       0.010700
     26 H16          2.5050     1.4190     3.6530 hc         1 0JR       0.010700
     27 H17          3.9100     0.5420     3.0300 hc         1 0JR       0.010700
     28 H18          4.1940     0.6250     0.2290 hc         1 0JR       0.010700
     29 H19          3.2460     1.9470    -0.4670 hc         1 0JR       0.010700
     30 H20          4.4400     2.2820     0.7950 hc         1 0JR       0.010700
     31 H21          1.1240     2.4320     0.4150 h1         1 0JR       0.005700
     32 H22          0.8210     2.3200     2.1540 h1         1 0JR       0.005700
     33 H23          1.5500     4.4170     1.5510 ho         1 0JR       0.392000
     34 H12          2.8790    -0.1310    -1.1700 hn         1 0JR       0.181500
     35 H11          0.6010     1.0230    -2.4580 h1         1 0JR       0.042700
     36 H10          0.4740    -0.7400    -2.5240 h1         1 0JR       0.042700
     37 H8           2.8360     0.9010    -3.5090 hc         1 0JR       0.028200
     38 H9           2.7090    -0.8620    -3.5740 hc         1 0JR       0.028200
     39 H7           3.0730     0.0790    -6.0690 hn         1 0JR       0.175500
     40 H5           0.6630    -0.5730    -7.4250 h1         1 0JR       0.032200
     41 H6           0.7890     1.1900    -7.3600 h1         1 0JR       0.032200
     42 H4           2.2760    -1.8920    -8.6810 h4         1 0JR      -0.014900
     43 H3           4.7870     0.0340   -11.3730 h4         1 0JR      -0.017900
     44 H2           4.2050     2.2400   -10.4340 ha         1 0JR       0.116000
     45 H1           2.5930     2.3690    -8.5430 ha         1 0JR       0.114000
@<TRIPOS>BOND
     1     1     2 2   
     2     2     3 1   
     3     2    10 1   
     4     3     4 1   
     5     3     5 1   
     6     3    23 1   
     7     4    24 1   
     8     5     6 1   
     9     5     7 1   
    10     5     8 1   
    11     6    25 1   
    12     6    26 1   
    13     6    27 1   
    14     7    28 1   
    15     7    29 1   
    16     7    30 1   
    17     8     9 1   
    18     8    31 1   
    19     8    32 1   
    20     9    33 1   
    21    10    11 1   
    22    10    34 1   
    23    11    12 1   
    24    11    35 1   
    25    11    36 1   
    26    12    13 1   
    27    12    37 1   
    28    12    38 1   
    29    13    14 2   
    30    13    15 1   
    31    15    16 1   
    32    15    39 1   
    33    16    17 1   
    34    16    40 1   
    35    16    41 1   
    36    17    18 ar  
    37    17    22 ar  
    38    18    19 ar  
    39    18    42 1   
    40    19    20 ar  
    41    20    21 ar  
    42    20    43 1   
    43    21    22 ar  
    44    21    44 1   
    45    22    45 1   
@<TRIPOS>SUBSTRUCTURE
     1 0JR         1 TEMP              0 ****  ****    0 ROOT
