@<TRIPOS>MOLECULE
0JR
   47    47     1     0     0
SMALL
bcc


@<TRIPOS>ATOM
      1 OAE          3.1390     1.6170    -1.2150 o          1 0JR      -0.392100
      2 CAU          2.9400     0.8160    -0.3240 c          1 0JR       0.559100
      3 CAV          3.5910     0.7460     1.0610 c3         1 0JR       0.119100
      4 OAG          3.4820    -0.6000     1.4770 oh         1 0JR      -0.653800
      5 CAW          2.9310     1.7680     2.0140 c3         1 0JR      -0.087000
      6 CAB          3.1180     3.1760     1.4660 c3         1 0JR      -0.110100
      7 CAC          1.4570     1.4560     2.1920 c3         1 0JR      -0.110100
      8 CAP          3.6460     1.7120     3.3790 c3         1 0JR       0.131400
      9 OAS          3.3530     0.4610     3.9770 oh         1 0JR      -0.637800
     10 NAR          1.9080    -0.2820    -0.6200 ny         1 0JR      -0.691800
     11 CAN          1.4690    -0.3120    -2.0360 c3         1 0JR       0.104800
     12 CAO          0.5310    -1.4580    -2.4020 c3         1 0JR      -0.184400
     13 CAT         -0.8040    -1.3380    -1.7170 c          1 0JR       0.536100
     14 OAD         -0.9880    -0.7850    -0.6370 o          1 0JR      -0.435100
     15 NAQ         -1.9930    -1.9500    -2.3770 ny         1 0JR      -0.680800
     16 CAM         -2.0540    -3.4580    -2.1710 c3         1 0JR       0.207100
     17 CAL         -3.2060    -4.0260    -2.9000 ca         1 0JR      -0.350600
     18 C2          -3.0760    -4.4160    -4.2530 ca         1 0JR       0.442200
     19 N1          -4.0680    -4.9850    -4.9550 nb         1 0JR      -0.631000
     20 C6          -5.2400    -5.2030    -4.3230 ca         1 0JR       0.475200
     21 C5          -5.4660    -4.8580    -2.9720 ca         1 0JR      -0.227300
     22 C4          -4.4340    -4.2610    -2.2540 ca         1 0JR      -0.046000
     23 H13          4.6810     1.0140     0.9040 h1         1 0JR       0.123700
     24 H14          3.7900    -0.6750     2.3980 ho         1 0JR       0.500000
     25 H15          4.2040     3.4200     1.3630 hc         1 0JR       0.059200
     26 H16          2.6300     3.2870     0.4680 hc         1 0JR       0.059200
     27 H17          2.6550     3.9170     2.1640 hc         1 0JR       0.059200
     28 H18          0.8900     1.6700     1.2540 hc         1 0JR       0.059200
     29 H19          1.0310     2.0940     3.0070 hc         1 0JR       0.059200
     30 H20          1.3230     0.3860     2.4870 hc         1 0JR       0.059200
     31 H21          4.7560     1.8150     3.2380 h1         1 0JR       0.063200
     32 H22          3.2700     2.5520     4.0230 h1         1 0JR       0.063200
     33 H23          3.6730     0.4940     4.8890 ho         1 0JR       0.449000
     34 H12          1.1080    -0.1270     0.0120 hn         1 0JR       0.477300
     35 H11          2.3950    -0.3940    -2.6860 hx         1 0JR       0.139200
     36 H10          0.9830     0.6830    -2.2670 hx         1 0JR       0.139200
     37 H8           0.4210    -1.4400    -3.5250 hc         1 0JR       0.135700
     38 H9           0.9740    -2.4590    -2.1300 hc         1 0JR       0.135700
     39 H7          -2.8550    -1.5390    -1.9820 hn         1 0JR       0.475800
     40 H5          -1.0800    -3.8800    -2.5520 hx         1 0JR       0.108700
     41 H6          -2.1390    -3.6350    -1.0600 hx         1 0JR       0.108700
     42 H4          -2.1250    -4.2820    -4.8010 h4         1 0JR       0.025100
     43 H3          -6.0340    -5.6830    -4.9330 h4         1 0JR       0.070100
     44 H2          -6.4400    -5.0680    -2.5020 ha         1 0JR       0.187000
     45 H1          -4.5740    -3.9950    -1.1950 ha         1 0JR       0.153000
     46 HAR2         2.3470    -1.1770    -0.3520 hn         1 0JR       0.477300
     47 HAQ2        -1.9820    -1.7540    -3.3860 hn         1 0JR       0.475800
@<TRIPOS>BOND
     1     1     2 2   
     2     2     3 1   
     3     2    10 1   
     4     3     4 1   
     5     3     5 1   
     6     3    23 1   
     7     4    24 1   
     8     5     6 1   
     9     5     7 1   
    10     5     8 1   
    11     6    25 1   
    12     6    26 1   
    13     6    27 1   
    14     7    28 1   
    15     7    29 1   
    16     7    30 1   
    17     8     9 1   
    18     8    31 1   
    19     8    32 1   
    20     9    33 1   
    21    10    11 1   
    22    10    34 1   
    23    10    46 1   
    24    11    12 1   
    25    11    35 1   
    26    11    36 1   
    27    12    13 1   
    28    12    37 1   
    29    12    38 1   
    30    13    14 2   
    31    13    15 1   
    32    15    16 1   
    33    15    39 1   
    34    15    47 1   
    35    16    17 1   
    36    16    40 1   
    37    16    41 1   
    38    17    18 ar  
    39    17    22 ar  
    40    18    19 ar  
    41    18    42 1   
    42    19    20 ar  
    43    20    21 ar  
    44    20    43 1   
    45    21    22 ar  
    46    21    44 1   
    47    22    45 1   
@<TRIPOS>SUBSTRUCTURE
     1 0JR         1 TEMP              0 ****  ****    0 ROOT
