@<TRIPOS>MOLECULE
0JU
   22    21     1     0     0
SMALL
bcc


@<TRIPOS>ATOM
      1 C            0.5200    -0.0190     0.6420 c2         1 0JU       0.387200
      2 NF           0.3740     0.2840    -0.5850 n2         1 0JU      -0.736100
      3 CA          -0.6410     0.1150     1.6290 c3         1 0JU       0.072200
      4 N           -1.6230     1.1710     1.2000 nz         1 0JU      -0.832600
      5 CB          -1.3400    -1.2410     1.8040 c3         1 0JU      -0.111400
      6 CG          -0.4230    -2.2520     2.4780 c3         1 0JU      -0.145400
      7 CD          -1.1800    -3.5310     2.7140 c          1 0JU       0.536100
      8 OE          -2.3590    -3.7550     2.5030 o          1 0JU      -0.359100
      9 NE          -0.3960    -4.6860     3.2890 nz         1 0JU      -0.758400
     10 H1           1.4380    -0.3910     1.1450 h4         1 0JU       0.018800
     11 H2           1.1510     0.1910    -1.2080 hn         1 0JU       0.474400
     12 H3          -0.2160     0.4610     2.6220 hx         1 0JU       0.123700
     13 H4          -1.1250     2.0610     1.0600 hn         1 0JU       0.478800
     14 H5          -2.3490     1.2960     1.9130 hn         1 0JU       0.478800
     15 H7          -2.2690    -1.1230     2.4300 hc         1 0JU       0.102700
     16 H8          -1.6600    -1.6380     0.8010 hc         1 0JU       0.102700
     17 H9           0.4740    -2.4550     1.8290 hc         1 0JU       0.115700
     18 H10         -0.0570    -1.8550     3.4660 hc         1 0JU       0.115700
     19 H11          0.0170    -4.4280     4.1930 hn         1 0JU       0.485133
     20 H12          0.3570    -4.9650     2.6480 hn         1 0JU       0.485133
     21 HN3         -2.0660     0.9070     0.3090 hn         1 0JU       0.478800
     22 HE3         -1.0220    -5.4970     3.4320 hn         1 0JU       0.485133
@<TRIPOS>BOND
     1     1     2 2   
     2     1     3 1   
     3     1    10 1   
     4     2    11 1   
     5     3     4 1   
     6     3     5 1   
     7     3    12 1   
     8     4    13 1   
     9     4    14 1   
    10     4    21 1   
    11     5     6 1   
    12     5    15 1   
    13     5    16 1   
    14     6     7 1   
    15     6    17 1   
    16     6    18 1   
    17     7     8 2   
    18     7     9 1   
    19     9    19 1   
    20     9    20 1   
    21     9    22 1   
@<TRIPOS>SUBSTRUCTURE
     1 0JU         1 TEMP              0 ****  ****    0 ROOT
