@<TRIPOS>MOLECULE
0JU
   22    21     1     0     0
SMALL
bcc


@<TRIPOS>ATOM
      1 C            0.0000     0.0000     0.0000 c2         1 0JU       0.373200
      2 NF           1.2800     0.0000     0.0000 n2         1 0JU      -0.500100
      3 CA          -0.7530     0.0000     1.3060 c3         1 0JU      -0.167800
      4 N            0.2030     0.0010     2.4220 nz         1 0JU       0.041400
      5 CB          -1.6340     1.2490     1.3870 c3         1 0JU      -0.018400
      6 CG          -2.4900     1.1890     2.6530 c3         1 0JU      -0.109400
      7 CD          -3.3570     2.4190     2.7320 c          1 0JU       0.313100
      8 OE          -3.2960     3.2610     1.8620 o          1 0JU      -0.354100
      9 NE          -4.2010     2.5830     3.7700 nz         1 0JU       0.209600
     10 H1          -0.5420    -0.0000    -0.9380 h4         1 0JU       0.057800
     11 H2           1.7800     0.0000     0.8670 hn         1 0JU       0.290400
     12 H3          -1.3750    -0.8850     1.3640 hx         1 0JU       0.109700
     13 H4           0.6750     0.8830     2.4560 hn         1 0JU       0.239133
     14 H5           0.8720    -0.7310     2.2890 hn         1 0JU       0.239133
     15 H7          -1.0060     2.1320     1.4170 hc         1 0JU       0.078700
     16 H8          -2.2780     1.2940     0.5170 hc         1 0JU       0.078700
     17 H9          -1.8460     1.1440     3.5230 hc         1 0JU       0.051700
     18 H10         -3.1180     0.3060     2.6220 hc         1 0JU       0.051700
     19 H11         -3.6780     2.6160     4.6230 hn         1 0JU       0.258467
     20 H12         -4.8430     1.8160     3.8020 hn         1 0JU       0.258467
     21 HN3         -0.2860    -0.1700     3.2790 hn         1 0JU       0.239133
     22 HE3         -4.7030     3.4410     3.6590 hn         1 0JU       0.258467
@<TRIPOS>BOND
     1     1     2 2   
     2     1     3 1   
     3     1    10 1   
     4     2    11 1   
     5     3     4 1   
     6     3     5 1   
     7     3    12 1   
     8     4    13 1   
     9     4    14 1   
    10     4    21 1   
    11     5     6 1   
    12     5    15 1   
    13     5    16 1   
    14     6     7 1   
    15     6    17 1   
    16     6    18 1   
    17     7     8 2   
    18     7     9 1   
    19     9    19 1   
    20     9    20 1   
    21     9    22 1   
@<TRIPOS>SUBSTRUCTURE
     1 0JU         1 TEMP              0 ****  ****    0 ROOT
