@<TRIPOS>MOLECULE
molecule
   22    21     1     0     0
SMALL
bcc


@<TRIPOS>ATOM
      1 C            0.0000     0.0000     0.0000 c2         1 0JU       0.399200
      2 NF           1.2800     0.0000     0.0000 n2         1 0JU      -0.779100
      3 CA          -0.7530     0.0000     1.3060 c3         1 0JU       0.071200
      4 N            0.2030     0.0010     2.4220 nz         1 0JU      -0.807600
      5 CB          -1.6340     1.2490     1.3870 c3         1 0JU      -0.097400
      6 CG          -2.4900     1.1890     2.6530 c3         1 0JU      -0.181400
      7 CD          -3.3570     2.4190     2.7320 c          1 0JU       0.486100
      8 OE          -3.2960     3.2610     1.8620 o          1 0JU      -0.356100
      9 NE          -4.2010     2.5830     3.7700 nz         1 0JU      -0.683400
     10 H1          -0.5420     0.0000    -0.9380 h4         1 0JU       0.042800
     11 H2           1.7800     0.0000    -0.8670 hn         1 0JU       0.483400
     12 H3          -1.3750    -0.8850     1.3640 hx         1 0JU       0.130700
     13 H4          -0.2620    -0.2920     3.2580 hn         1 0JU       0.467133
     14 H5           0.5670     0.9240     2.5480 hn         1 0JU       0.467133
     15 H7          -1.0060     2.1320     1.4170 hc         1 0JU       0.115700
     16 H8          -2.2780     1.2940     0.5170 hc         1 0JU       0.115700
     17 H9          -1.8460     1.1440     3.5230 hc         1 0JU       0.090700
     18 H10         -3.1180     0.3060     2.6220 hc         1 0JU       0.090700
     19 H11         -4.8010     1.7850     3.8410 hn         1 0JU       0.492467
     20 H12         -4.7540     3.4040     3.6240 hn         1 0JU       0.492467
     21 HN3          0.9480    -0.6360     2.2230 hn         1 0JU       0.467133
     22 HE3         -3.6750     2.6760     4.6160 hn         1 0JU       0.492467
@<TRIPOS>BOND
     1     8     7 2   
     2     9     7 1   
     3     7     6 1   
     4     6     5 1   
     5     5     3 1   
     6     3     4 1   
     7     3     1 1   
     8     1     2 2   
     9     1    10 1   
    10     2    11 1   
    11     3    12 1   
    12     4    13 1   
    13     4    14 1   
    14     5    15 1   
    15     5    16 1   
    16     6    17 1   
    17     6    18 1   
    18     9    19 1   
    19     9    20 1   
    20    21     4 1   
    21    22     9 1   
@<TRIPOS>SUBSTRUCTURE
     1 0JU         1 TEMP              0 ****  ****    0 ROOT
