@<TRIPOS>MOLECULE
0JW
   26    26     1     0     0
SMALL
bcc


@<TRIPOS>ATOM
      1 N2          -1.2730    -1.9380     1.1040 n1         1 0JW      -0.299800
      2 C12         -0.7160    -1.0730     0.6210 cg         1 0JW       0.157500
      3 C10          0.0000     0.0000     0.0000 ce         1 0JW      -0.161900
      4 C11          1.5070     0.0000     0.0000 c3         1 0JW       0.266500
      5 O14          1.9830     0.0000     1.3470 oh         1 0JW      -0.544800
      6 N12          1.9960    -1.1990    -0.6930 nz         1 0JW       0.037400
      7 C9          -0.6750     1.0100    -0.5890 cf         1 0JW       0.144800
      8 C5          -2.1370     0.9310    -0.7320 ca         1 0JW      -0.157800
      9 C6          -2.9070     2.1000    -0.7110 ca         1 0JW      -0.084000
     10 C1          -4.2790     2.0200    -0.8450 ca         1 0JW       0.099100
     11 O7          -5.0300     3.1540    -0.8250 oh         1 0JW      -0.481100
     12 C4          -2.7600    -0.3100    -0.8960 ca         1 0JW      -0.073000
     13 C3          -4.1300    -0.3790    -1.0350 ca         1 0JW      -0.114000
     14 C2          -4.8940     0.7790    -1.0030 ca         1 0JW       0.164100
     15 O8          -6.2430     0.7040    -1.1410 oh         1 0JW      -0.482100
     16 H1           1.8680     0.8850    -0.5110 hx         1 0JW       0.058700
     17 H2           2.4000     0.8250     1.5330 ho         1 0JW       0.444000
     18 H3           1.9310    -1.9880    -0.0810 hn         1 0JW       0.236800
     19 H4           1.4400    -1.3630    -1.5090 hn         1 0JW       0.236800
     20 H6          -0.1310     1.8210    -1.0580 ha         1 0JW       0.107000
     21 H7          -2.4220     3.0680    -0.6700 ha         1 0JW       0.121000
     22 H8          -5.0520     3.5010     0.0510 ho         1 0JW       0.419000
     23 H9          -2.1660    -1.2160    -0.9210 ha         1 0JW       0.113000
     24 H10         -4.6120    -1.3410    -1.1600 ha         1 0JW       0.133000
     25 H11         -6.4730     0.8090    -2.0500 ho         1 0JW       0.424000
     26 H123         2.9530    -1.0660    -0.9550 hn         1 0JW       0.236800
@<TRIPOS>BOND
     1     1     2 3   
     2     2     3 1   
     3     3     4 1   
     4     3     7 2   
     5     4     5 1   
     6     4     6 1   
     7     4    16 1   
     8     5    17 1   
     9     6    18 1   
    10     6    19 1   
    11     6    26 1   
    12     7     8 1   
    13     7    20 1   
    14     8     9 ar  
    15     8    12 ar  
    16     9    10 ar  
    17     9    21 1   
    18    10    11 1   
    19    10    14 ar  
    20    11    22 1   
    21    12    13 ar  
    22    12    23 1   
    23    13    14 ar  
    24    13    24 1   
    25    14    15 1   
    26    15    25 1   
@<TRIPOS>SUBSTRUCTURE
     1 0JW         1 TEMP              0 ****  ****    0 ROOT
