@<TRIPOS>MOLECULE
0JW
   26    26     1     0     0
SMALL
bcc


@<TRIPOS>ATOM
      1 N2           1.4030    -2.6160    -1.5350 n1         1 0JW      -0.290800
      2 C12          0.7500    -1.8140    -1.0010 cg         1 0JW       0.133500
      3 C10         -0.0620    -0.8480    -0.3450 ce         1 0JW      -0.185900
      4 C11          0.2960     0.5840    -0.6270 c3         1 0JW       0.428500
      5 O14          0.1680     1.4690     0.4450 oh         1 0JW      -0.563800
      6 N12          1.7650     0.7180    -1.0660 nz         1 0JW      -0.887600
      7 C9          -1.1000    -1.2730     0.4180 cf         1 0JW       0.097800
      8 C5          -2.0990    -0.5150     1.1310 ca         1 0JW      -0.168800
      9 C6          -2.5670     0.7330     0.6830 ca         1 0JW      -0.108000
     10 C1          -3.5820     1.3920     1.3790 ca         1 0JW       0.114100
     11 O7          -3.9860     2.6060     0.8890 oh         1 0JW      -0.482100
     12 C4          -2.6770    -1.1000     2.2730 ca         1 0JW      -0.065000
     13 C3          -3.6790    -0.4460     2.9820 ca         1 0JW      -0.181000
     14 C2          -4.1380     0.8000     2.5410 ca         1 0JW       0.112100
     15 O8          -5.1220     1.5200     3.1640 oh         1 0JW      -0.491100
     16 H1          -0.3130     1.0160    -1.4860 hx         1 0JW       0.139700
     17 H2           0.0600     0.9770     1.2770 ho         1 0JW       0.465000
     18 H3           2.0210     1.7100    -1.0490 hn         1 0JW       0.463133
     19 H4           1.8770     0.3410    -2.0100 hn         1 0JW       0.463133
     20 H6          -1.2120    -2.3770     0.5310 ha         1 0JW       0.171000
     21 H7          -2.1670     1.2040    -0.2260 ha         1 0JW       0.151000
     22 H8          -4.7300     2.9240     1.4300 ho         1 0JW       0.455000
     23 H9          -2.3320    -2.0890     2.6190 ha         1 0JW       0.152000
     24 H10         -4.1150    -0.9090     3.8800 ha         1 0JW       0.163000
     25 H11         -5.4610     1.0040     3.9140 ho         1 0JW       0.453000
     26 H123         2.3780     0.2070    -0.4260 hn         1 0JW       0.463133
@<TRIPOS>BOND
     1     1     2 3   
     2     2     3 1   
     3     3     4 1   
     4     3     7 2   
     5     4     5 1   
     6     4     6 1   
     7     4    16 1   
     8     5    17 1   
     9     6    18 1   
    10     6    19 1   
    11     6    26 1   
    12     7     8 1   
    13     7    20 1   
    14     8     9 ar  
    15     8    12 ar  
    16     9    10 ar  
    17     9    21 1   
    18    10    11 1   
    19    10    14 ar  
    20    11    22 1   
    21    12    13 ar  
    22    12    23 1   
    23    13    14 ar  
    24    13    24 1   
    25    14    15 1   
    26    15    25 1   
@<TRIPOS>SUBSTRUCTURE
     1 0JW         1 TEMP              0 ****  ****    0 ROOT
