@<TRIPOS>MOLECULE
molecule
   26    26     1     0     0
SMALL
bcc


@<TRIPOS>ATOM
      1 N2          -1.2710    -1.9250     1.1290 n1         1 0JW      -0.302800
      2 C12         -0.7160    -1.0730     0.6210 cg         1 0JW       0.124500
      3 C10          0.0000     0.0000     0.0000 cf         1 0JW      -0.114900
      4 C11          1.5070     0.0000     0.0000 c3         1 0JW       0.405500
      5 O14          1.9830     0.0000     1.3470 oh         1 0JW      -0.581800
      6 N12          1.9960    -1.1990    -0.6930 nz         1 0JW      -0.827600
      7 C9          -0.6750     1.0100    -0.5890 ce         1 0JW      -0.250200
      8 C5          -2.1370     0.9310    -0.7320 ca         1 0JW      -0.169800
      9 C6          -2.9070     2.1000    -0.7110 ca         1 0JW      -0.079000
     10 C1          -4.2790     2.0200    -0.8450 ca         1 0JW       0.072100
     11 O7          -5.0300     3.1540    -0.8250 oh         1 0JW      -0.489100
     12 C4          -2.7600    -0.3100    -0.8960 ca         1 0JW      -0.063000
     13 C3          -4.1300    -0.3790    -1.0350 ca         1 0JW      -0.165000
     14 C2          -4.8940     0.7790    -1.0030 ca         1 0JW       0.202100
     15 O8          -6.2430     0.7040    -1.1410 oh         1 0JW      -0.497100
     16 H1           1.8680     0.8850    -0.5110 hx         1 0JW       0.122700
     17 H2           2.3540     0.8430     1.5490 ho         1 0JW       0.462000
     18 H3           1.2710    -1.5670    -1.2760 hn         1 0JW       0.463133
     19 H4           2.2630    -1.8890    -0.0180 hn         1 0JW       0.463133
     20 H6          -1.3340     1.2990     0.2210 ha         1 0JW       0.361000
     21 H7          -2.4220     3.0680    -0.6730 ha         1 0JW       0.179000
     22 H8          -5.0550     3.4990     0.0520 ho         1 0JW       0.440000
     23 H9          -2.1660    -1.2160    -0.9210 ha         1 0JW       0.152000
     24 H10         -4.6120    -1.3410    -1.1600 ha         1 0JW       0.173000
     25 H11         -6.4640     0.6600    -2.0570 ho         1 0JW       0.456000
     26 H123         2.7920    -0.9610    -1.2510 hn         1 0JW       0.463133
@<TRIPOS>BOND
     1    15    14 1
     2    13    14 ar
     3    13    12 ar
     4    14    10 ar
     5    12     8 ar
     6    10    11 1
     7    10     9 ar
     8     8     9 ar
     9     8     7 1
    10     7     3 2
    11     3     2 1
    12     3     4 1
    13     5     4 1
    14     2     1 3
    15     4     6 1
    16     4    16 1
    17     5    17 1
    18     6    18 1
    19     6    19 1
    20     7    20 1
    21     9    21 1
    22    11    22 1
    23    12    23 1
    24    13    24 1
    25    15    25 1
    26    26     6 1
@<TRIPOS>SUBSTRUCTURE
     1 0JW         1 TEMP              0 ****  ****    0 ROOT
