@<TRIPOS>MOLECULE
0JX
   21    20     1     0     0
SMALL
bcc


@<TRIPOS>ATOM
      1 O20         -0.5220    -0.7130     0.0500 o          1 0JX      -0.955167
      2 P17          0.9520    -0.5220     0.2730 p5         1 0JX       1.467900
      3 O19          1.5010    -1.2240     1.4970 o          1 0JX      -0.955167
      4 O18          1.4370     0.8920     0.1230 o          1 0JX      -0.955167
      5 O16          1.7240    -1.4110    -1.0300 os         1 0JX      -0.821800
      6 P13          2.4580    -2.2170    -2.1560 p5         1 0JX       1.575800
      7 O15          2.7540    -1.4670    -3.4090 o          1 0JX      -0.924000
      8 O14          1.9880    -3.6270    -2.3020 o          1 0JX      -0.924000
      9 O29          3.9850    -2.4030    -1.4380 os         1 0JX      -0.589200
     10 C28          4.0130    -3.2000    -0.3100 c3         1 0JX       0.234400
     11 C27          4.2230    -2.4050     0.9820 c3         1 0JX      -0.168200
     12 C30          5.3410    -1.4610     0.8770 c2         1 0JX      -0.090200
     13 C13          6.3080    -1.3070     1.7950 c2         1 0JX      -0.160900
     14 O33          7.3460    -0.3810     1.6850 oh         1 0JX      -0.581100
     15 H4           4.8700    -3.9360    -0.4170 h1         1 0JX      -0.015800
     16 H5           3.0540    -3.7870    -0.2200 h1         1 0JX      -0.015800
     17 H6           3.2390    -1.8060     1.1710 hc         1 0JX       0.106700
     18 H7           4.3590    -3.1170     1.8350 hc         1 0JX       0.106700
     19 H9           5.3130    -0.8450    -0.0420 ha         1 0JX       0.153000
     20 H11          6.4120    -1.8590     2.7350 h4         1 0JX       0.118000
     21 H12          7.1030     0.2270     0.9750 ho         1 0JX       0.392000
@<TRIPOS>BOND
     1     1     2 1   
     2     2     3 1   
     3     2     4 1   
     4     2     5 1   
     5     5     6 1   
     6     6     7 1   
     7     6     8 1   
     8     6     9 1   
     9     9    10 1   
    10    10    11 1   
    11    10    15 1   
    12    10    16 1   
    13    11    12 1   
    14    11    17 1   
    15    11    18 1   
    16    12    13 2   
    17    12    19 1   
    18    13    14 1   
    19    13    20 1   
    20    14    21 1   
@<TRIPOS>SUBSTRUCTURE
     1 0JX         1 TEMP              0 ****  ****    0 ROOT
