@<TRIPOS>MOLECULE
molecule
   21    20     1     0     0
SMALL
bcc


@<TRIPOS>ATOM
      1 O20          0.0000     0.0000     0.0000 o          1 0JX      -0.948500
      2 P17          1.4800     0.0000     0.0000 p5         1 0JX       1.297900
      3 O19          2.0170     0.0000     1.5170 o          1 0JX      -0.948500
      4 O18          2.0170    -1.3150    -0.7590 o          1 0JX      -0.948500
      5 O16          2.0180     1.3140    -0.7590 os         1 0JX      -0.709800
      6 P13          1.6190     2.8730    -0.7150 p5         1 0JX       1.416800
      7 O15          2.2970     3.5640     0.5720 o          1 0JX      -0.862000
      8 O14          0.1480     3.0030    -0.6270 o          1 0JX      -0.862000
      9 O29          2.1430     3.6000    -2.0520 os         1 0JX      -0.598200
     10 C28          1.8550     4.9650    -2.3610 c3         1 0JX       0.239400
     11 C27          2.5000     5.3330    -3.6970 c3         1 0JX      -0.058200
     12 C30          2.1960     6.7730    -4.0230 c2         1 0JX      -0.165200
     13 C13          3.1790     7.6130    -4.2740 c2         1 0JX      -0.072900
     14 O33          2.9050     8.9090    -4.5660 oh         1 0JX      -0.531100
     15 H4           2.2510     5.6030    -1.5800 h1         1 0JX       0.017200
     16 H5           0.7820     5.1010    -2.4280 h1         1 0JX       0.017200
     17 H6           3.5730     5.1970    -3.6300 hc         1 0JX       0.044700
     18 H7           2.1030     4.6950    -4.4780 hc         1 0JX       0.044700
     19 H9           1.1690     7.1170    -4.0490 ha         1 0JX       0.126000
     20 H11          4.2050     7.2690    -4.2470 h4         1 0JX       0.114000
     21 H12          3.7030     9.4100    -4.5520 ho         1 0JX       0.388000
@<TRIPOS>BOND
     1     1     2 1   
     2     8     6 1   
     3     2     5 1   
     4     2     3 1   
     5     2     4 1   
     6     7     6 1   
     7     5     6 1   
     8     6     9 1   
     9     9    10 1   
    10    11    10 1   
    11    11    12 1   
    12    13    12 2   
    13    13    14 1   
    14    10    15 1   
    15    10    16 1   
    16    11    17 1   
    17    11    18 1   
    18    12    19 1   
    19    13    20 1   
    20    14    21 1   
@<TRIPOS>SUBSTRUCTURE
     1 0JX         1 TEMP              0 ****  ****    0 ROOT
