@<TRIPOS>MOLECULE
0JY
   25    24     1     0     0
SMALL
bcc


@<TRIPOS>ATOM
      1 O            0.0000     0.0000     0.0000 o          1 0JY      -0.817300
      2 C            1.2080     0.0000     0.0000 c          1 0JY       0.951600
      3 CA           1.9610     0.0000     1.3050 c3         1 0JY      -0.183500
      4 N            1.0790     0.4720     2.3800 nz         1 0JY      -0.133600
      5 CB           2.4340    -1.4210     1.6200 c3         1 0JY      -0.018400
      6 CAI          3.3000    -1.4030     2.8810 c3         1 0JY      -0.100000
      7 CAB          3.9070    -2.7890     3.1030 c3         1 0JY      -0.001767
      8 CAC          4.4220    -0.3750     2.7150 c3         1 0JY      -0.001767
      9 CAA          2.4370    -1.0240     4.0870 c3         1 0JY      -0.001767
     10 H2           2.8190     0.6570     1.2260 hx         1 0JY       0.092700
     11 H3           1.8490     1.1110     2.3510 hn         1 0JY       0.269467
     12 H4           0.2090     0.8550     2.0670 hn         1 0JY       0.269467
     13 H6           3.0150    -1.8010     0.7890 hc         1 0JY       0.057200
     14 H7           1.5750    -2.0600     1.7820 hc         1 0JY       0.057200
     15 H8           4.5330    -3.0490     2.2580 hc         1 0JY       0.011922
     16 H9           3.1140    -3.5190     3.2040 hc         1 0JY       0.011922
     17 H10          4.5060    -2.7810     4.0060 hc         1 0JY       0.011922
     18 H11          5.2610    -0.6520     3.3400 hc         1 0JY       0.011922
     19 H12          4.0610     0.6040     3.0070 hc         1 0JY       0.011922
     20 H13          4.7370    -0.3490     1.6790 hc         1 0JY       0.011922
     21 H14          2.3550     0.0540     4.1480 hc         1 0JY       0.011922
     22 H15          1.4500    -1.4560     3.9740 hc         1 0JY       0.011922
     23 H16          2.8960    -1.4030     4.9920 hc         1 0JY       0.011922
     24 O1           1.8800    -0.0010    -1.1630 o          1 0JY      -0.817300
     25 HN3          1.0540    -0.1170     3.1880 hn         1 0JY       0.269467
@<TRIPOS>BOND
     1     1     2 1   
     2     2     3 1   
     3     2    24 1   
     4     3     4 1   
     5     3     5 1   
     6     3    10 1   
     7     4    11 1   
     8     4    12 1   
     9     4    25 1   
    10     5     6 1   
    11     5    13 1   
    12     5    14 1   
    13     6     7 1   
    14     6     8 1   
    15     6     9 1   
    16     7    15 1   
    17     7    16 1   
    18     7    17 1   
    19     8    18 1   
    20     8    19 1   
    21     8    20 1   
    22     9    21 1   
    23     9    22 1   
    24     9    23 1   
@<TRIPOS>SUBSTRUCTURE
     1 0JY         1 TEMP              0 ****  ****    0 ROOT
