@<TRIPOS>MOLECULE
molecule
   66    69     1     0     0
SMALL
bcc


@<TRIPOS>ATOM
      1 SE1          0.0000     0.0000     0.0000 ss         1 0JZ      -0.575967
      2 SE2          5.7810     0.3120     7.3950 ss         1 0JZ      -0.575967
      3 SE3          9.2320     0.9440    -1.3190 ss         1 0JZ      -0.575967
      4 C01          6.6630     0.5750    -1.3300 cc         1 0JZ       0.316800
      5 C02          5.2400     0.3950    -1.6730 c          1 0JZ       0.577267
      6 N03          4.3190     0.1990    -0.6820 ns         1 0JZ      -0.548900
      7 C04          2.9350    -0.0020    -1.1700 c3         1 0JZ       0.106733
      8 C05          1.9860     0.0000     0.0000 cc         1 0JZ       0.639700
      9 C07         -0.0320    -0.0070     1.9840 cc         1 0JZ       0.080267
     10 C08          1.3030    -0.0030     2.2450 cd         1 0JZ       0.316800
     11 C09          1.7290    -0.0070     3.6560 c          1 0JZ       0.577267
     12 N10          3.0570     0.0010     3.9770 ns         1 0JZ      -0.548900
     13 C11          3.3280    -0.0460     5.4350 c3         1 0JZ       0.106733
     14 C12          4.7990     0.1690     5.6740 cd         1 0JZ       0.639700
     15 C14          7.4980     0.5610     6.4310 cd         1 0JZ       0.080267
     16 C15          7.0620     0.4960     5.1440 cc         1 0JZ       0.316800
     17 C16          8.0610     0.6370     4.0680 c          1 0JZ       0.577267
     18 N17          7.6740     0.5790     2.7580 ns         1 0JZ      -0.548900
     19 C18          8.7970     0.6320     1.7940 c3         1 0JZ       0.106733
     20 C19          8.2560     0.6680     0.3890 cd         1 0JZ       0.639700
     21 C21          7.5430     0.7800    -2.3480 cd         1 0JZ       0.080267
     22 N22          7.0390     0.5280    -0.0470 nc         1 0JZ      -0.719333
     23 N23          5.7760     0.3110     4.8250 nc         1 0JZ      -0.719333
     24 N24          2.2280     0.0000     1.2780 nd         1 0JZ      -0.719333
     25 O26          0.8940    -0.0160     4.5400 o          1 0JZ      -0.591433
     26 O27          9.2320     0.8040     4.3470 o          1 0JZ      -0.591433
     27 C28          2.5630     1.1320    -2.1280 c3         1 0JZ      -0.126033
     28 C29          1.1860     0.8570    -2.7340 c3         1 0JZ      -0.081767
     29 C30          2.5280     2.4560    -1.3630 c3         1 0JZ      -0.081767
     30 C31          2.5300     1.0530     6.1380 c3         1 0JZ      -0.126033
     31 C32          2.8190     1.0100     7.6410 c3         1 0JZ      -0.081767
     32 C33          2.9370     2.4170     5.5780 c3         1 0JZ      -0.081767
     33 C34          9.6300     1.8900     2.0510 c3         1 0JZ      -0.126033
     34 C35         10.8730     1.8690     1.1600 c3         1 0JZ      -0.081767
     35 C36          8.7930     3.1300     1.7320 c3         1 0JZ      -0.081767
     36 HN03         4.6030    -0.1940     0.1940 hn         1 0JZ       0.345833
     37 H04          2.8680    -0.9500    -1.6890 h1         1 0JZ       0.089033
     38 H07         -0.8010    -0.4470     2.6070 h4         1 0JZ       0.215333
     39 HN10         3.7300    -0.3590     3.3310 hn         1 0JZ       0.345833
     40 H11          3.0360    -1.0130     5.8260 h1         1 0JZ       0.089033
     41 H14          8.4770     0.2640     6.7870 h4         1 0JZ       0.215333
     42 HN17         6.7670     0.9050     2.4890 hn         1 0JZ       0.345833
     43 H18          9.4210    -0.2450     1.9180 h1         1 0JZ       0.089033
     44 H21          7.4470     0.4010    -3.3590 h4         1 0JZ       0.215333
     45 H28          1.8260     1.0730    -1.3370 hc         1 0JZ       0.104367
     46 H29          0.8310    -0.1100    -2.4000 hc         1 0JZ       0.041644
     47 H29A         1.2600     0.8600    -3.8150 hc         1 0JZ       0.041644
     48 H29B         0.4920     1.6260    -2.4180 hc         1 0JZ       0.041644
     49 H30          3.5370     2.8330    -1.2480 hc         1 0JZ       0.041644
     50 H30A         1.9350     3.1760    -1.9140 hc         1 0JZ       0.041644
     51 H30B         2.0880     2.2980    -0.3860 hc         1 0JZ       0.041644
     52 H31          1.4720     0.8950     5.9700 hc         1 0JZ       0.104367
     53 H32          3.0230    -0.0100     7.9400 hc         1 0JZ       0.041644
     54 H32A         3.6790     1.6310     7.8610 hc         1 0JZ       0.041644
     55 H32B         1.9580     1.3810     8.1840 hc         1 0JZ       0.041644
     56 H33          2.9960     2.3610     4.4980 hc         1 0JZ       0.041644
     57 H33A         2.1990     3.1580     5.8610 hc         1 0JZ       0.041644
     58 H33B         3.9030     2.6990     5.9790 hc         1 0JZ       0.041644
     59 H34          9.9320     1.9160     3.0910 hc         1 0JZ       0.104367
     60 H35         11.6860     2.3780     1.6630 hc         1 0JZ       0.041644
     61 H35A        11.1570     0.8430     0.9600 hc         1 0JZ       0.041644
     62 H35B        10.6550     2.3720     0.2250 hc         1 0JZ       0.041644
     63 H36          7.9340     3.1660     2.3920 hc         1 0JZ       0.041644
     64 H36A         8.4570     3.0840     0.7030 hc         1 0JZ       0.041644
     65 H36B         9.3960     4.0190     1.8750 hc         1 0JZ       0.041644
     66 O25          4.8850     0.4240    -2.8360 o          1 0JZ      -0.591433
@<TRIPOS>BOND
     1     8     1 1
     2     1     9 1
     3    15     2 1
     4    14     2 1
     5     3    20 1
     6     3    21 1
     7    22     4 1
     8    21     4 2
     9     4     5 1
    10     6     5 1
    11     5    66 2
    12     6     7 1
    13     6    36 1
    14    27     7 1
    15     7     8 1
    16     7    37 1
    17     8    24 2
    18    10     9 2
    19     9    38 1
    20    24    10 1
    21    10    11 1
    22    12    11 1
    23    11    25 2
    24    13    12 1
    25    12    39 1
    26    30    13 1
    27    14    13 1
    28    13    40 1
    29    23    14 2
    30    16    15 2
    31    15    41 1
    32    17    16 1
    33    16    23 1
    34    18    17 1
    35    26    17 2
    36    19    18 1
    37    18    42 1
    38    33    19 1
    39    19    20 1
    40    19    43 1
    41    20    22 2
    42    21    44 1
    43    28    27 1
    44    27    29 1
    45    27    45 1
    46    28    46 1
    47    28    47 1
    48    28    48 1
    49    29    49 1
    50    29    50 1
    51    29    51 1
    52    31    30 1
    53    32    30 1
    54    30    52 1
    55    31    53 1
    56    31    54 1
    57    31    55 1
    58    32    56 1
    59    32    57 1
    60    32    58 1
    61    35    33 1
    62    34    33 1
    63    33    59 1
    64    34    60 1
    65    34    61 1
    66    34    62 1
    67    35    63 1
    68    35    64 1
    69    35    65 1
@<TRIPOS>SUBSTRUCTURE
     1 0JZ         1 TEMP              0 ****  ****    0 ROOT
