@<TRIPOS>MOLECULE
0JZ
   69    72     1     0     0
SMALL
bcc


@<TRIPOS>ATOM
      1 SE1          0.4210    -0.7410     0.4330 ss         1 0JZ       0.316367
      2 SE2          5.0090    -1.1360     6.8730 ss         1 0JZ       0.316367
      3 SE3          7.2640    -4.1750     0.1520 ss         1 0JZ       0.316367
      4 C01          5.4450    -2.5410    -0.3960 cc         1 0JZ       0.211467
      5 C02          4.1980    -2.0310    -0.9640 c          1 0JZ       0.492600
      6 N03          4.0810    -0.5290    -1.0930 ny         1 0JZ      -0.663800
      7 C04          2.6560    -0.0260    -1.1090 c3         1 0JZ       0.109533
      8 C05          2.0200    -0.1660     0.2450 cc         1 0JZ       0.253700
      9 C07          0.4950    -0.5660     2.0490 cc         1 0JZ      -0.195733
     10 C08          1.7520    -0.0530     2.4410 cd         1 0JZ       0.211467
     11 C09          2.0800     0.1580     3.8500 c          1 0JZ       0.492600
     12 N10          3.1680     1.1680     4.1430 ny         1 0JZ      -0.663800
     13 C11          3.8230     0.9910     5.4950 c3         1 0JZ       0.109533
     14 C12          4.8060    -0.1430     5.4930 cc         1 0JZ       0.253700
     15 C14          6.1430    -2.0310     6.1230 cc         1 0JZ      -0.195733
     16 C15          6.3720    -1.5560     4.8140 cd         1 0JZ       0.211467
     17 C16          7.3210    -2.2160     3.9170 c          1 0JZ       0.492600
     18 N17          7.9450    -1.3490     2.8480 ny         1 0JZ      -0.663800
     19 C18          8.4540    -2.1170     1.6500 c3         1 0JZ       0.109533
     20 C19          7.3160    -2.5900     0.7910 cd         1 0JZ       0.253700
     21 C21          5.8660    -3.8700    -0.6230 cd         1 0JZ      -0.195733
     22 N22          6.2900    -1.8040     0.4160 nc         1 0JZ      -0.632667
     23 N23          5.6030    -0.4620     4.4570 nd         1 0JZ      -0.632667
     24 N24          2.6270     0.1840     1.3950 nd         1 0JZ      -0.632667
     25 O26          1.5350    -0.3720     4.8070 o          1 0JZ      -0.398433
     26 O27          7.6870    -3.3810     3.9790 o          1 0JZ      -0.398433
     27 C28          2.5710     1.4430    -1.6030 c3         1 0JZ      -0.077033
     28 C29          3.4000     1.6820    -2.8480 c3         1 0JZ      -0.116933
     29 C30          1.1170     1.7660    -1.8970 c3         1 0JZ      -0.116933
     30 C31          4.4470     2.3240     5.9810 c3         1 0JZ      -0.077033
     31 C32          4.7440     2.2170     7.4640 c3         1 0JZ      -0.116933
     32 C33          5.6790     2.7200     5.2040 c3         1 0JZ      -0.116933
     33 C34          9.4580    -1.2800     0.8130 c3         1 0JZ      -0.077033
     34 C35         10.5040    -0.6050     1.6750 c3         1 0JZ      -0.116933
     35 C36         10.1440    -2.2030    -0.1780 c3         1 0JZ      -0.116933
     36 O25          3.2640    -2.7020    -1.3780 o          1 0JZ      -0.398433
     37 H04          2.0950    -0.6840    -1.8490 hx         1 0JZ       0.140700
     38 H07         -0.3080    -0.8070     2.7620 h4         1 0JZ       0.245667
     39 HN10         2.7330     2.1030     4.1230 hn         1 0JZ       0.476633
     40 H11          2.9850     0.7270     6.2210 hx         1 0JZ       0.140700
     41 H14          6.6700    -2.8960     6.5550 h4         1 0JZ       0.245667
     42 HN17         8.7530    -0.8690     3.2800 hn         1 0JZ       0.476633
     43 H18          9.0060    -3.0230     2.0620 hx         1 0JZ       0.140700
     44 H21          5.3040    -4.5830    -1.2460 h4         1 0JZ       0.245667
     45 H28          2.9390     2.1160    -0.7790 hc         1 0JZ       0.079033
     46 H29          4.4900     1.7610    -2.6160 hc         1 0JZ       0.066367
     47 H29A         3.2320     0.8850    -3.6130 hc         1 0JZ       0.066367
     48 H29B         3.0960     2.6570    -3.3120 hc         1 0JZ       0.066367
     49 H30          0.4620     1.5110    -1.0300 hc         1 0JZ       0.066367
     50 H30A         0.7580     1.2120    -2.7990 hc         1 0JZ       0.066367
     51 H30B         1.0150     2.8620    -2.1010 hc         1 0JZ       0.066367
     52 H31          3.6680     3.1360     5.8590 hc         1 0JZ       0.079033
     53 H32          3.8030     2.0900     8.0530 hc         1 0JZ       0.066367
     54 H32A         5.4260     1.3580     7.6780 hc         1 0JZ       0.066367
     55 H32B         5.2460     3.1560     7.8120 hc         1 0JZ       0.066367
     56 H33          6.5280     2.0250     5.4120 hc         1 0JZ       0.066367
     57 H33A         5.4840     2.7330     4.1050 hc         1 0JZ       0.066367
     58 H33B         5.9980     3.7490     5.5120 hc         1 0JZ       0.066367
     59 H34          8.8820    -0.4950     0.2480 hc         1 0JZ       0.079033
     60 H35         10.9330    -1.3100     2.4290 hc         1 0JZ       0.066367
     61 H35A        11.3510    -0.2580     1.0260 hc         1 0JZ       0.066367
     62 H35B        10.1020     0.3010     2.1900 hc         1 0JZ       0.066367
     63 H36         10.8280    -2.9150     0.3450 hc         1 0JZ       0.066367
     64 H36A        10.7580    -1.5930    -0.8890 hc         1 0JZ       0.066367
     65 H36B         9.3980    -2.7850    -0.7720 hc         1 0JZ       0.066367
     66 H031         4.5980    -0.0640    -0.3390 hn         1 0JZ       0.476633
     67 H102         3.8840     1.1400     3.4080 hn         1 0JZ       0.476633
     68 H172         7.2800    -0.6330     2.5380 hn         1 0JZ       0.476633
     69 HN03         4.5180    -0.2640    -1.9910 hn         1 0JZ       0.476633
@<TRIPOS>BOND
     1     1     8 1   
     2     1     9 1   
     3     2    14 1   
     4     2    15 1   
     5     3    20 1   
     6     3    21 1   
     7     4     5 1   
     8     4    21 2   
     9     4    22 1   
    10     5     6 1   
    11     5    36 2   
    12     6     7 1   
    13     6    66 1   
    14     6    69 1   
    15     7     8 1   
    16     7    27 1   
    17     7    37 1   
    18     8    24 2   
    19     9    10 2   
    20     9    38 1   
    21    10    11 1   
    22    10    24 1   
    23    11    12 1   
    24    11    25 2   
    25    12    13 1   
    26    12    39 1   
    27    12    67 1   
    28    13    14 1   
    29    13    30 1   
    30    13    40 1   
    31    14    23 2   
    32    15    16 2   
    33    15    41 1   
    34    16    17 1   
    35    16    23 1   
    36    17    18 1   
    37    17    26 2   
    38    18    19 1   
    39    18    42 1   
    40    18    68 1   
    41    19    20 1   
    42    19    33 1   
    43    19    43 1   
    44    20    22 2   
    45    21    44 1   
    46    27    28 1   
    47    27    29 1   
    48    27    45 1   
    49    28    46 1   
    50    28    47 1   
    51    28    48 1   
    52    29    49 1   
    53    29    50 1   
    54    29    51 1   
    55    30    31 1   
    56    30    32 1   
    57    30    52 1   
    58    31    53 1   
    59    31    54 1   
    60    31    55 1   
    61    32    56 1   
    62    32    57 1   
    63    32    58 1   
    64    33    34 1   
    65    33    35 1   
    66    33    59 1   
    67    34    60 1   
    68    34    61 1   
    69    34    62 1   
    70    35    63 1   
    71    35    64 1   
    72    35    65 1   
@<TRIPOS>SUBSTRUCTURE
     1 0JZ         1 TEMP              0 ****  ****    0 ROOT
