@<TRIPOS>MOLECULE
molecule
   52    54     1     0     0
SMALL
bcc


@<TRIPOS>ATOM
      1 C1           0.0000     0.0000     0.0000 cp         1 0K0      -0.123500
      2 C2           1.3920     0.0000     0.0000 ca         1 0K0      -0.134000
      3 C3          -0.6940     0.0060     1.2090 ca         1 0K0      -0.094000
      4 C4           2.0820     0.0000     1.2040 ca         1 0K0       0.115600
      5 C5          -0.0000     0.0060     2.4030 ca         1 0K0      -0.126000
      6 C6           1.3810     0.0000     2.4050 ca         1 0K0      -0.104000
      7 C7          -0.7430    -0.0000    -1.2840 cp         1 0K0       0.269500
      8 C8          -0.0440    -0.0060    -2.4950 ca         1 0K0       0.391900
      9 N10         -0.7000    -0.0060    -3.6400 nb         1 0K0      -0.739000
     10 C11         -2.7350     0.0050    -2.4310 ca         1 0K0       0.165500
     11 C12         -2.0290    -0.0000    -3.6460 ca         1 0K0       0.640900
     12 O14         -4.8190    -0.0780    -3.4810 o          1 0K0      -0.641100
     13 C16         -6.3510     0.1470    -1.2730 c3         1 0K0       0.113000
     14 C17         -6.8610     0.2880     0.1630 c3         1 0K0      -0.091700
     15 C18         -8.3850     0.4250     0.1520 c3         1 0K0      -0.073400
     16 C19         -6.4740    -0.9560     0.9690 c3         1 0K0      -0.073400
     17 C21         -7.0390    -0.8350     2.3850 c3         1 0K0       0.158300
     18 N22         -8.5010    -0.7070     2.3220 n7         1 0K0      -0.817200
     19 O26          5.6720    -1.0120     1.5010 o          1 0K0      -0.625800
     20 C27          3.8810    -2.5380     0.2430 c3         1 0K0      -0.244300
     21 O28          3.7330    -1.8180     2.8080 o          1 0K0      -0.625800
     22 S25          4.3040    -1.3870     1.5800 s6         1 0K0       1.325900
     23 N24          3.4780    -0.0010     1.2090 nu         1 0K0      -0.782500
     24 N9          -2.0690    -0.0000    -1.2810 nb         1 0K0      -0.605000
     25 N23         -2.7150     0.0050    -4.8460 nv         1 0K0      -0.978500
     26 C13         -4.2120     0.0170    -2.4320 c          1 0K0       0.597600
     27 N15         -4.8860     0.1340    -1.2720 ns         1 0K0      -0.558900
     28 C20         -8.8950     0.5060     1.5930 c3         1 0K0       0.158300
     29 H1           1.9360    -0.0020    -0.9370 ha         1 0K0       0.132000
     30 H2          -1.7770     0.0080     1.2110 ha         1 0K0       0.148000
     31 H3          -0.5410     0.0080     3.3410 ha         1 0K0       0.139000
     32 H4           1.9200     0.0000     3.3450 ha         1 0K0       0.158000
     33 H5           1.0390    -0.0110    -2.4930 h4         1 0K0       0.033100
     34 H6          -6.7040     0.9820    -1.8650 h1         1 0K0       0.056200
     35 H7          -6.7200    -0.7790    -1.6970 h1         1 0K0       0.056200
     36 H8          -6.4230     1.1660     0.6230 hc         1 0K0       0.052700
     37 H9          -8.8220    -0.4370    -0.3370 hc         1 0K0       0.052950
     38 H10         -8.6620     1.3280    -0.3790 hc         1 0K0       0.052950
     39 H11         -6.8840    -1.8370     0.4910 hc         1 0K0       0.052950
     40 H12         -5.3950    -1.0330     1.0170 hc         1 0K0       0.052950
     41 H13         -6.6220     0.0420     2.8650 h1         1 0K0       0.032700
     42 H14         -6.7800    -1.7210     2.9520 h1         1 0K0       0.032700
     43 H15         -8.8740    -0.6740     3.2500 hn         1 0K0       0.354800
     44 H17          3.9440    -2.0240    -0.7090 h1         1 0K0       0.099033
     45 H18          2.8720    -2.9060     0.3890 h1         1 0K0       0.099033
     46 H19          4.5730    -3.3710     0.2510 h1         1 0K0       0.099033
     47 H20          3.9790     0.8420     1.0110 hn         1 0K0       0.466800
     48 H21         -3.7160     0.0200    -4.8500 hn         1 0K0       0.464300
     49 H22         -2.2110     0.0020    -5.7110 hn         1 0K0       0.464300
     50 H23         -4.3860     0.2460    -0.4120 hn         1 0K0       0.335500
     51 H24         -8.4650     1.3730     2.0790 h1         1 0K0       0.032700
     52 H25         -9.9760     0.5870     1.5880 h1         1 0K0       0.032700
@<TRIPOS>BOND
     1    21    22 2
     2    17    16 1
     3    17    18 1
     4    16    14 1
     5    19    22 2
     6    22    23 1
     7    22    20 1
     8    13    14 1
     9    13    27 1
    10    14    15 1
    11    23     4 1
    12    18    28 1
    13    27    26 1
    14     4     2 ar
    15     4     6 ar
    16    15    28 1
    17     2     1 ar
    18    26    12 2
    19    26    10 1
    20     6     5 ar
    21    24    10 ar
    22    24     7 ar
    23    10    11 ar
    24     1     7 1
    25     1     3 ar
    26     5     3 ar
    27     7     8 ar
    28    11    25 1
    29    11     9 ar
    30     8     9 ar
    31     2    29 1
    32     3    30 1
    33     5    31 1
    34     6    32 1
    35     8    33 1
    36    13    34 1
    37    13    35 1
    38    14    36 1
    39    15    37 1
    40    15    38 1
    41    16    39 1
    42    16    40 1
    43    17    41 1
    44    17    42 1
    45    18    43 1
    46    20    44 1
    47    20    45 1
    48    20    46 1
    49    23    47 1
    50    25    48 1
    51    25    49 1
    52    27    50 1
    53    28    51 1
    54    28    52 1
@<TRIPOS>SUBSTRUCTURE
     1 0K0         1 TEMP              0 ****  ****    0 ROOT
