@<TRIPOS>MOLECULE
0K0
   53    55     1     0     0
SMALL
bcc


@<TRIPOS>ATOM
      1 C1          -0.1360     0.2260     0.0160 cp         1 0K0      -0.140500
      2 C2           1.2520     0.1620     0.1950 ca         1 0K0      -0.128000
      3 C3          -0.9860     0.1530     1.1240 ca         1 0K0      -0.116000
      4 C4           1.8040    -0.0430     1.4750 ca         1 0K0       0.145600
      5 C5          -0.4400     0.0130     2.4000 ca         1 0K0      -0.103000
      6 C6           0.9350    -0.0920     2.5870 ca         1 0K0      -0.125000
      7 C7          -0.6620     0.3340    -1.3520 cp         1 0K0       0.337500
      8 C8          -1.9820     0.8970    -1.6140 ca         1 0K0       0.421900
      9 N10         -2.4980     0.9930    -2.8180 nb         1 0K0      -0.688000
     10 C11         -0.4050     0.0160    -3.6520 ca         1 0K0       0.061500
     11 C12         -1.7310     0.5370    -3.9100 ca         1 0K0       0.676900
     12 O14          0.2150    -0.5050    -5.9290 o          1 0K0      -0.494100
     13 C16          2.7290    -1.2740    -5.4570 c3         1 0K0       0.105800
     14 C17          4.2100    -1.4030    -5.0860 c3         1 0K0      -0.084700
     15 C18          4.4220    -2.3260    -3.8960 c3         1 0K0      -0.089900
     16 C19          4.9410    -1.9240    -6.3190 c3         1 0K0      -0.089900
     17 C21          6.4140    -2.1850    -6.0040 c3         1 0K0       0.168300
     18 N22          6.5860    -3.0620    -4.8640 n7         1 0K0      -0.825200
     19 O26          3.7490    -1.0240    -0.6890 o          1 0K0      -0.662800
     20 C27          4.1020    -2.5990     1.2440 c3         1 0K0      -0.378300
     21 O28          5.5080    -0.5350     0.8530 o          1 0K0      -0.662800
     22 S25          4.2030    -1.0160     0.6560 s6         1 0K0       1.474900
     23 N24          3.1940    -0.1880     1.6310 nu         1 0K0      -0.785500
     24 N9           0.0780    -0.0860    -2.3710 nb         1 0K0      -0.623000
     25 N23         -2.2730     0.6180    -5.1470 nv         1 0K0      -0.904500
     26 C13          0.4760    -0.4160    -4.7300 c          1 0K0       0.487600
     27 N15          1.8920    -0.7790    -4.3290 ny         1 0K0      -0.650800
     28 C20          5.9130    -2.5910    -3.6720 c3         1 0K0       0.168300
     29 H1           1.9230     0.2560    -0.6760 ha         1 0K0       0.166000
     30 H2          -2.0790     0.1920     1.0030 ha         1 0K0       0.142000
     31 H3          -1.1090    -0.0260     3.2750 ha         1 0K0       0.156000
     32 H4           1.3370    -0.2130     3.6060 ha         1 0K0       0.152000
     33 H5          -2.6020     1.2810    -0.7780 h4         1 0K0       0.066100
     34 H6           2.3170    -2.2740    -5.7740 hx         1 0K0       0.107700
     35 H7           2.6150    -0.5560    -6.3200 hx         1 0K0       0.107700
     36 H8           4.6210    -0.3850    -4.8310 hc         1 0K0       0.067700
     37 H9           3.8910    -3.2970    -4.0730 hc         1 0K0       0.059950
     38 H10          4.0220    -1.8660    -2.9530 hc         1 0K0       0.059950
     39 H11          4.8790    -1.1730    -7.1470 hc         1 0K0       0.059950
     40 H12          4.4600    -2.8730    -6.6720 hc         1 0K0       0.059950
     41 H13          6.9250    -1.1870    -5.8590 h1         1 0K0       0.042950
     42 H14          6.8890    -2.6880    -6.8940 h1         1 0K0       0.042950
     43 H15          7.5600    -3.2160    -4.6820 hn         1 0K0       0.384800
     44 H17          3.0760    -3.0410     1.2030 h1         1 0K0       0.126033
     45 H18          4.4490    -2.7080     2.3030 h1         1 0K0       0.126033
     46 H19          4.7550    -3.2850     0.6440 h1         1 0K0       0.126033
     47 H20          3.5450     0.2620     2.4490 hn         1 0K0       0.468800
     48 H21         -3.1890     0.9890    -5.2780 hn         1 0K0       0.475300
     49 H22         -1.7680     0.2980    -5.9430 hn         1 0K0       0.475300
     50 H23          2.3340     0.0520    -3.9130 hn         1 0K0       0.472800
     51 H24          6.0200    -3.3900    -2.8860 h1         1 0K0       0.042950
     52 H25          6.3770    -1.6440    -3.2640 h1         1 0K0       0.042950
     53 H152         1.8610    -1.5000    -3.5930 hn         1 0K0       0.472800
@<TRIPOS>BOND
     1     1     2 ar  
     2     1     3 ar  
     3     1     7 1   
     4     2     4 ar  
     5     2    29 1   
     6     3     5 ar  
     7     3    30 1   
     8     4     6 ar  
     9     4    23 1   
    10     5     6 ar  
    11     5    31 1   
    12     6    32 1   
    13     7     8 ar  
    14     7    24 ar  
    15     8     9 ar  
    16     8    33 1   
    17     9    11 ar  
    18    10    11 ar  
    19    10    24 ar  
    20    10    26 1   
    21    11    25 1   
    22    12    26 2   
    23    13    14 1   
    24    13    27 1   
    25    13    34 1   
    26    13    35 1   
    27    14    15 1   
    28    14    16 1   
    29    14    36 1   
    30    15    28 1   
    31    15    37 1   
    32    15    38 1   
    33    16    17 1   
    34    16    39 1   
    35    16    40 1   
    36    17    18 1   
    37    17    41 1   
    38    17    42 1   
    39    18    28 1   
    40    18    43 1   
    41    19    22 2   
    42    20    22 1   
    43    20    44 1   
    44    20    45 1   
    45    20    46 1   
    46    21    22 2   
    47    22    23 1   
    48    23    47 1   
    49    25    48 1   
    50    25    49 1   
    51    26    27 1   
    52    27    50 1   
    53    27    53 1   
    54    28    51 1   
    55    28    52 1   
@<TRIPOS>SUBSTRUCTURE
     1 0K0         1 TEMP              0 ****  ****    0 ROOT
