@<TRIPOS>MOLECULE
0K0
   52    54     1     0     0
SMALL
bcc


@<TRIPOS>ATOM
      1 C1           0.0000     0.0000     0.0000 cp         1 0K0      -0.118500
      2 C2           1.3920     0.0000     0.0000 ca         1 0K0      -0.128000
      3 C3          -0.6940     0.0060     1.2090 ca         1 0K0      -0.082000
      4 C4           2.0820     0.0000     1.2040 ca         1 0K0       0.044600
      5 C5          -0.0000     0.0060     2.4030 ca         1 0K0      -0.094000
      6 C6           1.3810     0.0000     2.4050 ca         1 0K0      -0.084000
      7 C7          -0.7430    -0.0000    -1.2840 cp         1 0K0       0.210500
      8 C8          -0.0440    -0.0060    -2.4950 ca         1 0K0       0.386900
      9 N10         -0.7000    -0.0060    -3.6400 nb         1 0K0      -0.651000
     10 C11         -2.7350     0.0050    -2.4310 ca         1 0K0       0.087500
     11 C12         -2.0290    -0.0000    -3.6460 ca         1 0K0       0.460900
     12 O14         -4.8190    -0.0780    -3.4810 o          1 0K0      -0.688100
     13 C16         -6.3510     0.1470    -1.2730 c3         1 0K0       0.046000
     14 C17         -6.8610     0.2880     0.1630 c3         1 0K0      -0.068700
     15 C18         -8.3850     0.4250     0.1520 c3         1 0K0      -0.022400
     16 C19         -6.4740    -0.9560     0.9690 c3         1 0K0      -0.022400
     17 C21         -7.0390    -0.8350     2.3850 c3         1 0K0       0.148300
     18 N22         -8.5010    -0.7070     2.3220 n7         1 0K0      -0.578200
     19 O26          5.6720    -1.0120     1.5010 o          1 0K0      -0.583300
     20 C27          3.8810    -2.5380     0.2430 c3         1 0K0       0.013700
     21 O28          3.7330    -1.8180     2.8080 o          1 0K0      -0.583300
     22 S25          4.3040    -1.3870     1.5800 s6         1 0K0       0.950900
     23 N24          3.4780    -0.0010     1.2090 nu         1 0K0      -0.433500
     24 N9          -2.0690    -0.0000    -1.2810 nb         1 0K0      -0.472000
     25 N23         -2.7150     0.0050    -4.8460 nv         1 0K0      -0.509500
     26 C13         -4.2120     0.0170    -2.4320 c          1 0K0       0.513600
     27 N15         -4.8860     0.1340    -1.2720 ns         1 0K0      -0.162900
     28 C20         -8.8950     0.5060     1.5930 c3         1 0K0       0.148300
     29 H1           1.9360    -0.0020    -0.9370 ha         1 0K0       0.112000
     30 H2          -1.7770     0.0080     1.2110 ha         1 0K0       0.117000
     31 H3          -0.5410     0.0080     3.3410 ha         1 0K0       0.106000
     32 H4           1.9200     0.0000     3.3450 ha         1 0K0       0.131000
     33 H5           1.0390    -0.0110    -2.4930 h4         1 0K0      -0.010900
     34 H6          -6.7040     0.9820    -1.8650 h1         1 0K0       0.030200
     35 H7          -6.7200    -0.7790    -1.6970 h1         1 0K0       0.030200
     36 H8          -6.4230     1.1660     0.6230 hc         1 0K0       0.029700
     37 H9          -8.8220    -0.4370    -0.3370 hc         1 0K0       0.024200
     38 H10         -8.6620     1.3280    -0.3790 hc         1 0K0       0.024200
     39 H11         -6.8840    -1.8370     0.4910 hc         1 0K0       0.024200
     40 H12         -5.3950    -1.0330     1.0170 hc         1 0K0       0.024200
     41 H13         -6.6220     0.0420     2.8650 h1         1 0K0       0.005700
     42 H14         -6.7800    -1.7210     2.9520 h1         1 0K0       0.005700
     43 H15         -8.8740    -0.6740     3.2500 hn         1 0K0       0.252800
     44 H17          3.9440    -2.0240    -0.7090 h1         1 0K0       0.063367
     45 H18          2.8720    -2.9060     0.3890 h1         1 0K0       0.063367
     46 H19          4.5730    -3.3710     0.2510 h1         1 0K0       0.063367
     47 H20          3.9790     0.8420     1.0110 hn         1 0K0       0.351800
     48 H21         -3.7160     0.0200    -4.8500 hn         1 0K0       0.306800
     49 H22         -2.2110     0.0020    -5.7110 hn         1 0K0       0.306800
     50 H23         -4.3860     0.2460    -0.4120 hn         1 0K0       0.195500
     51 H24         -8.4650     1.3730     2.0790 h1         1 0K0       0.005700
     52 H25         -9.9760     0.5870     1.5880 h1         1 0K0       0.005700
@<TRIPOS>BOND
     1     1     2 ar  
     2     1     3 ar  
     3     1     7 1   
     4     2     4 ar  
     5     2    29 1   
     6     3     5 ar  
     7     3    30 1   
     8     4     6 ar  
     9     4    23 1   
    10     5     6 ar  
    11     5    31 1   
    12     6    32 1   
    13     7     8 ar  
    14     7    24 ar  
    15     8     9 ar  
    16     8    33 1   
    17     9    11 ar  
    18    10    11 ar  
    19    10    24 ar  
    20    10    26 1   
    21    11    25 1   
    22    12    26 2   
    23    13    14 1   
    24    13    27 1   
    25    13    34 1   
    26    13    35 1   
    27    14    15 1   
    28    14    16 1   
    29    14    36 1   
    30    15    28 1   
    31    15    37 1   
    32    15    38 1   
    33    16    17 1   
    34    16    39 1   
    35    16    40 1   
    36    17    18 1   
    37    17    41 1   
    38    17    42 1   
    39    18    28 1   
    40    18    43 1   
    41    19    22 2   
    42    20    22 1   
    43    20    44 1   
    44    20    45 1   
    45    20    46 1   
    46    21    22 2   
    47    22    23 1   
    48    23    47 1   
    49    25    48 1   
    50    25    49 1   
    51    26    27 1   
    52    27    50 1   
    53    28    51 1   
    54    28    52 1   
@<TRIPOS>SUBSTRUCTURE
     1 0K0         1 TEMP              0 ****  ****    0 ROOT
