@<TRIPOS>MOLECULE
0K1
   61    66     1     0     0
SMALL
bcc


@<TRIPOS>ATOM
      1 C1           0.0000     0.0000     0.0000 cp         1 0K1      -0.146500
      2 C2           1.3930     0.0000     0.0000 ca         1 0K1      -0.100000
      3 C3          -0.6940     0.0070     1.2090 ca         1 0K1      -0.080000
      4 C4           2.0820     0.0000     1.2080 ca         1 0K1       0.029000
      5 C5          -0.0030     0.0060     2.4040 ca         1 0K1      -0.097000
      6 C6           1.3780     0.0000     2.4100 ca         1 0K1      -0.101000
      7 C7          -2.0280     0.0010    -3.6460 ca         1 0K1       0.449900
      8 C8          -2.7330     0.0070    -2.4310 ca         1 0K1       0.188500
      9 N10         -2.0690     0.0070    -1.2810 nb         1 0K1      -0.531000
     10 C11         -0.0430    -0.0040    -2.4950 ca         1 0K1       0.318900
     11 C12         -0.7430     0.0000    -1.2830 cp         1 0K1       0.311500
     12 C17          3.5670    -0.0010     1.2160 cc         1 0K1      -0.270300
     13 C18          4.3670    -0.0000     2.3210 cd         1 0K1      -0.239300
     14 C19          4.4060    -0.0070     0.0840 cc         1 0K1       0.405200
     15 C23         -6.3510     0.1410    -1.2740 c3         1 0K1       0.026700
     16 C24         -6.8590     0.8810    -0.0350 c3         1 0K1      -0.051200
     17 C27         -6.8670    -1.2990    -1.2550 c3         1 0K1      -0.051200
     18 C30         -6.8700    -1.2670     1.2430 c3         1 0K1       0.173800
     19 C31         -8.9050    -0.5520    -0.0180 c3         1 0K1      -0.038700
     20 C32         -8.4000    -1.2600     1.2410 c3         1 0K1      -0.052400
     21 O15         -4.8180    -0.0880    -3.4810 o          1 0K1      -0.649100
     22 C14         -4.2110     0.0140    -2.4330 c          1 0K1       0.492600
     23 N16         -4.8860     0.1340    -1.2720 ns         1 0K1      -0.179900
     24 C29         -8.3970    -1.2920    -1.2570 c3         1 0K1      -0.012900
     25 O33         -6.3980    -1.9270     2.4190 oh         1 0K1      -0.587800
     26 C28         -6.3620    -2.0070     0.0030 c3         1 0K1      -0.037900
     27 C25         -6.3530     0.1730     1.2250 c3         1 0K1      -0.037900
     28 C26         -8.3890     0.8880    -0.0370 c3         1 0K1      -0.012900
     29 N9          -0.6990     0.0010    -3.6400 nb         1 0K1      -0.573000
     30 N21          5.6450    -0.0060     0.4970 nd         1 0K1      -0.646800
     31 N20          5.6480    -0.0010     1.8970 na         1 0K1       0.493400
     32 C22          6.8360     0.0030     2.7550 c3         1 0K1       0.022600
     33 H1           1.9370    -0.0030    -0.9370 ha         1 0K1       0.115000
     34 H2          -1.7780     0.0090     1.2100 ha         1 0K1       0.119000
     35 H3          -0.5460     0.0090     3.3420 ha         1 0K1       0.104000
     36 H4           1.9140     0.0000     3.3510 ha         1 0K1       0.103000
     37 H5           1.0400    -0.0040    -2.4930 h4         1 0K1      -0.003900
     38 H6          -2.9760    -0.8650    -5.2730 hn         1 0K1       0.286300
     39 H7          -2.9040     0.8660    -5.3130 hn         1 0K1       0.286300
     40 H8           4.0340     0.0030     3.3520 h4         1 0K1       0.149000
     41 H9           4.0800    -0.0110    -0.9490 h4         1 0K1       0.006100
     42 H10         -6.7080     0.6420    -2.1660 h1         1 0K1       0.058700
     43 H11         -6.4930     1.9010    -0.0470 hc         1 0K1       0.039200
     44 H12         -6.5080    -1.8230    -2.1330 hc         1 0K1       0.039200
     45 H13         -9.9890    -0.5470    -0.0190 hc         1 0K1       0.026700
     46 H14         -8.7600    -0.7370     2.1180 hc         1 0K1       0.022200
     47 H15         -8.7660    -2.2790     1.2530 hc         1 0K1       0.022200
     48 H16         -4.3870     0.2680    -0.4150 hn         1 0K1       0.199500
     49 H17         -8.7550    -0.7910    -2.1490 hc         1 0K1       0.019450
     50 H18         -8.7630    -2.3120    -1.2450 hc         1 0K1       0.019450
     51 H19         -6.8270    -2.7630     2.5030 ho         1 0K1       0.393000
     52 H20         -6.7280    -3.0260     0.0160 hc         1 0K1       0.026200
     53 H21         -5.2790    -2.0120     0.0050 hc         1 0K1       0.026200
     54 H22         -6.7120     0.6970     2.1030 hc         1 0K1       0.026200
     55 H23         -5.2700     0.1680     1.2260 hc         1 0K1       0.026200
     56 H24         -8.7470     1.3880    -0.9290 hc         1 0K1       0.019450
     57 H25         -8.7490     1.4120     0.8400 hc         1 0K1       0.019450
     58 H26          7.7260    -0.0350     2.1390 h1         1 0K1       0.022367
     59 H27          6.8120    -0.8600     3.4090 h1         1 0K1       0.022367
     60 H28          6.8480     0.9080     3.3510 h1         1 0K1       0.022367
     61 N13         -2.7140     0.0020    -4.8460 nv         1 0K1      -0.629500
@<TRIPOS>BOND
     1     1     2 ar  
     2     1     3 ar  
     3     1    11 1   
     4     2     4 ar  
     5     2    33 1   
     6     3     5 ar  
     7     3    34 1   
     8     4     6 ar  
     9     4    12 1   
    10     5     6 ar  
    11     5    35 1   
    12     6    36 1   
    13     7     8 ar  
    14     7    29 ar  
    15     7    61 1   
    16     8     9 ar  
    17     8    22 1   
    18     9    11 ar  
    19    10    11 ar  
    20    10    29 ar  
    21    10    37 1   
    22    12    13 2   
    23    12    14 1   
    24    13    31 1   
    25    13    40 1   
    26    14    30 2   
    27    14    41 1   
    28    15    16 1   
    29    15    17 1   
    30    15    23 1   
    31    15    42 1   
    32    16    27 1   
    33    16    28 1   
    34    16    43 1   
    35    17    24 1   
    36    17    26 1   
    37    17    44 1   
    38    18    20 1   
    39    18    25 1   
    40    18    26 1   
    41    18    27 1   
    42    19    20 1   
    43    19    24 1   
    44    19    28 1   
    45    19    45 1   
    46    20    46 1   
    47    20    47 1   
    48    21    22 2   
    49    22    23 1   
    50    23    48 1   
    51    24    49 1   
    52    24    50 1   
    53    25    51 1   
    54    26    52 1   
    55    26    53 1   
    56    27    54 1   
    57    27    55 1   
    58    28    56 1   
    59    28    57 1   
    60    30    31 1   
    61    31    32 1   
    62    32    58 1   
    63    32    59 1   
    64    32    60 1   
    65    38    61 1   
    66    39    61 1   
@<TRIPOS>SUBSTRUCTURE
     1 0K1         1 TEMP              0 ****  ****    0 ROOT
