@<TRIPOS>MOLECULE
molecule
   61    66     1     0     0
SMALL
bcc


@<TRIPOS>ATOM
      1 C1           0.0000     0.0000     0.0000 cp         1 0K1      -0.141500
      2 C2           1.3930     0.0000     0.0000 ca         1 0K1      -0.116000
      3 C3          -0.6940     0.0070     1.2090 ca         1 0K1      -0.099000
      4 C4           2.0820     0.0000     1.2080 ca         1 0K1       0.016000
      5 C5          -0.0030     0.0060     2.4040 ca         1 0K1      -0.126000
      6 C6           1.3780     0.0000     2.4100 ca         1 0K1      -0.122000
      7 C7          -2.0280     0.0010    -3.6460 ca         1 0K1       0.615900
      8 C8          -2.7330     0.0070    -2.4310 ca         1 0K1       0.243500
      9 N10         -2.0690     0.0070    -1.2810 nb         1 0K1      -0.648000
     10 C11         -0.0430    -0.0040    -2.4950 ca         1 0K1       0.336900
     11 C12         -0.7430     0.0000    -1.2830 cp         1 0K1       0.346500
     12 C17          3.5670    -0.0010     1.2160 cc         1 0K1      -0.268300
     13 C18          4.3670    -0.0000     2.3210 cd         1 0K1      -0.096300
     14 C19          4.4060    -0.0070     0.0840 cd         1 0K1       0.347200
     15 C23         -6.3510     0.1410    -1.2740 c3         1 0K1       0.126700
     16 C24         -6.8590     0.8810    -0.0350 c3         1 0K1      -0.077700
     17 C27         -6.8670    -1.2990    -1.2550 c3         1 0K1      -0.077700
     18 C30         -6.8700    -1.2670     1.2430 c3         1 0K1       0.155800
     19 C31         -8.9050    -0.5520    -0.0180 c3         1 0K1      -0.065700
     20 C32         -8.4000    -1.2600     1.2410 c3         1 0K1      -0.100400
     21 O15         -4.8180    -0.0880    -3.4810 o          1 0K1      -0.598100
     22 C14         -4.2110     0.0140    -2.4330 c          1 0K1       0.578600
     23 N16         -4.8860     0.1340    -1.2720 ns         1 0K1      -0.566900
     24 C29         -8.3970    -1.2920    -1.2570 c3         1 0K1      -0.068900
     25 O33         -6.3980    -1.9270     2.4190 oh         1 0K1      -0.604800
     26 C28         -6.3620    -2.0070     0.0030 c3         1 0K1      -0.077900
     27 C25         -6.3530     0.1730     1.2250 c3         1 0K1      -0.077900
     28 C26         -8.3890     0.8880    -0.0370 c3         1 0K1      -0.068900
     29 N9          -0.6990     0.0010    -3.6400 nb         1 0K1      -0.681000
     30 N21          5.6450    -0.0060     0.4970 nc         1 0K1      -0.507800
     31 N20          5.6480    -0.0010     1.8970 na         1 0K1       0.068400
     32 C22          6.8360     0.0030     2.7550 c3         1 0K1       0.062600
     33 H1           1.9370    -0.0030    -0.9370 ha         1 0K1       0.131000
     34 H2          -1.7780     0.0090     1.2100 ha         1 0K1       0.149000
     35 H3          -0.5460     0.0090     3.3420 ha         1 0K1       0.134000
     36 H4           1.9140     0.0000     3.3510 ha         1 0K1       0.127000
     37 H5           1.0400    -0.0040    -2.4930 h4         1 0K1       0.034100
     38 H6          -2.9760    -0.8650    -5.2730 hn         1 0K1       0.446800
     39 H7          -2.9040     0.8660    -5.3130 hn         1 0K1       0.446800
     40 H8           4.0340     0.0030     3.3520 h4         1 0K1       0.173000
     41 H9           4.0800    -0.0110    -0.9490 h4         1 0K1       0.049100
     42 H10         -6.7080     0.6420    -2.1660 h1         1 0K1       0.079700
     43 H11         -6.4930     1.9010    -0.0470 hc         1 0K1       0.065700
     44 H12         -6.5080    -1.8230    -2.1330 hc         1 0K1       0.065700
     45 H13         -9.9890    -0.5470    -0.0190 hc         1 0K1       0.052700
     46 H14         -8.7600    -0.7370     2.1180 hc         1 0K1       0.047200
     47 H15         -8.7660    -2.2790     1.2530 hc         1 0K1       0.047200
     48 H16         -4.3870     0.2680    -0.4150 hn         1 0K1       0.333500
     49 H17         -8.7550    -0.7910    -2.1490 hc         1 0K1       0.046950
     50 H18         -8.7630    -2.3120    -1.2450 hc         1 0K1       0.046950
     51 H19         -6.8270    -2.7630     2.5030 ho         1 0K1       0.403000
     52 H20         -6.7280    -3.0260     0.0160 hc         1 0K1       0.052200
     53 H21         -5.2790    -2.0120     0.0050 hc         1 0K1       0.052200
     54 H22         -6.7120     0.6970     2.1030 hc         1 0K1       0.052200
     55 H23         -5.2700     0.1680     1.2260 hc         1 0K1       0.052200
     56 H24         -8.7470     1.3880    -0.9290 hc         1 0K1       0.046950
     57 H25         -8.7490     1.4120     0.8400 hc         1 0K1       0.046950
     58 H26          7.7260    -0.0350     2.1390 h1         1 0K1       0.056367
     59 H27          6.8120    -0.8600     3.4090 h1         1 0K1       0.056367
     60 H28          6.8480     0.9080     3.3510 h1         1 0K1       0.056367
     61 N13         -2.7140     0.0020    -4.8460 nv         1 0K1      -1.060500
@<TRIPOS>BOND
     1    24    17 1
     2    24    19 1
     3    32    31 1
     4    17    26 1
     5    17    15 1
     6    19    20 1
     7    19    28 1
     8    26    18 1
     9    20    18 1
    10    31    30 1
    11    31    13 1
    12    30    14 2
    13    13    12 2
    14    18    25 1
    15    18    27 1
    16    15    23 1
    17    15    16 1
    18    28    16 1
    19    14    12 1
    20    12     4 1
    21    23    22 1
    22    16    27 1
    23     4     2 ar
    24     4     6 ar
    25     2     1 ar
    26    22    21 2
    27    22     8 1
    28     6     5 ar
    29     9     8 ar
    30     9    11 ar
    31     1    11 1
    32     1     3 ar
    33     8     7 ar
    34     5     3 ar
    35    11    10 ar
    36     7    61 1
    37     7    29 ar
    38    10    29 ar
    39     2    33 1
    40     3    34 1
    41     5    35 1
    42     6    36 1
    43    10    37 1
    44    61    38 1
    45    61    39 1
    46    13    40 1
    47    14    41 1
    48    15    42 1
    49    16    43 1
    50    17    44 1
    51    19    45 1
    52    20    46 1
    53    20    47 1
    54    23    48 1
    55    24    49 1
    56    24    50 1
    57    25    51 1
    58    26    52 1
    59    26    53 1
    60    27    54 1
    61    27    55 1
    62    28    56 1
    63    28    57 1
    64    32    58 1
    65    32    59 1
    66    32    60 1
@<TRIPOS>SUBSTRUCTURE
     1 0K1         1 TEMP              0 ****  ****    0 ROOT
