@<TRIPOS>MOLECULE
0K1
   62    67     1     0     0
SMALL
bcc


@<TRIPOS>ATOM
      1 C1           0.1960    -0.1950    -0.2450 cp         1 0K1      -0.170500
      2 C2           1.5870    -0.2570    -0.1150 ca         1 0K1      -0.104000
      3 C3          -0.6100    -0.0840     0.8960 ca         1 0K1      -0.121000
      4 C4           2.1880    -0.2090     1.1530 ca         1 0K1       0.034000
      5 C5          -0.0180    -0.0460     2.1560 ca         1 0K1      -0.114000
      6 C6           1.3670    -0.1080     2.2890 ca         1 0K1      -0.099000
      7 C7          -1.7740    -0.3920    -3.9980 ca         1 0K1       0.675900
      8 C8          -0.4990     0.2770    -3.8460 ca         1 0K1       0.060500
      9 N10          0.1350     0.3400    -2.6220 nb         1 0K1      -0.635000
     10 C11         -1.7040    -0.9390    -1.7300 ca         1 0K1       0.420900
     11 C12         -0.4290    -0.2380    -1.5730 cp         1 0K1       0.355500
     12 C17          3.6160    -0.2530     1.2850 cc         1 0K1      -0.242300
     13 C18          4.5960    -0.0280     0.2950 cd         1 0K1      -0.127300
     14 C19          4.3830    -0.5260     2.4890 cc         1 0K1       0.322200
     15 C23          2.5520     1.1040    -5.6960 c3         1 0K1       0.124500
     16 C24          2.9050    -0.3880    -5.5170 c3         1 0K1      -0.071200
     17 C27          3.8390     1.9480    -5.5690 c3         1 0K1      -0.071200
     18 C30          4.8830     0.2100    -4.1150 c3         1 0K1       0.153800
     19 C31          5.1170     0.0600    -6.5910 c3         1 0K1      -0.065700
     20 C32          5.8190    -0.1910    -5.2620 c3         1 0K1      -0.105400
     21 O15         -0.2540     1.0110    -6.1380 o          1 0K1      -0.511100
     22 N16          1.4980     1.5660    -4.7280 ny         1 0K1      -0.656800
     23 C29          4.7660     1.5390    -6.7130 c3         1 0K1      -0.075400
     24 O33          5.5020     0.0470    -2.8460 oh         1 0K1      -0.599800
     25 C28          4.5310     1.6990    -4.2370 c3         1 0K1      -0.101400
     26 C25          3.6030    -0.6350    -4.1890 c3         1 0K1      -0.101400
     27 C26          3.8410    -0.7720    -6.6630 c3         1 0K1      -0.075400
     28 N9          -2.3470    -1.0160    -2.8710 nb         1 0K1      -0.689000
     29 N21          5.7090    -0.4660     2.2260 nd         1 0K1      -0.493800
     30 N20          5.8370    -0.1700     0.9190 na         1 0K1       0.096400
     31 C22          7.1060     0.0250     0.2600 c3         1 0K1       0.032600
     32 N13         -2.4530    -0.4610    -5.1660 nv         1 0K1      -0.904500
     33 C14          0.1540     0.9120    -4.9790 c          1 0K1       0.489600
     34 H1           2.2250    -0.3520    -1.0060 ha         1 0K1       0.129000
     35 H2          -1.7040    -0.0120     0.8050 ha         1 0K1       0.135000
     36 H3          -0.6500     0.0390     3.0540 ha         1 0K1       0.150000
     37 H4           1.8250    -0.0710     3.2900 ha         1 0K1       0.151000
     38 H5          -2.1650    -1.4480    -0.8580 h4         1 0K1       0.070100
     39 H6          -2.0960    -0.0290    -5.9890 hn         1 0K1       0.474800
     40 H7          -3.3300    -0.9330    -5.2160 hn         1 0K1       0.474800
     41 H8           4.5080     0.2150    -0.7650 h4         1 0K1       0.183000
     42 H9           4.0020    -0.7620     3.4840 h4         1 0K1       0.051100
     43 H10          2.1120     1.2520    -6.7300 hx         1 0K1       0.116700
     44 H11          1.9700    -1.0080    -5.5770 hc         1 0K1       0.069700
     45 H12          3.5960     3.0410    -5.6680 hc         1 0K1       0.069700
     46 H13          5.8000    -0.2310    -7.4350 hc         1 0K1       0.084700
     47 H14          6.7630     0.4090    -5.2010 hc         1 0K1       0.066700
     48 H15          6.0920    -1.2730    -5.1700 hc         1 0K1       0.066700
     49 H16          1.3830     2.5800    -4.8350 hn         1 0K1       0.466800
     50 H17          5.6990     2.1590    -6.6660 hc         1 0K1       0.068200
     51 H18          4.2710     1.7360    -7.6990 hc         1 0K1       0.068200
     52 H19          5.8850    -0.8400    -2.8290 ho         1 0K1       0.417000
     53 H20          5.4750     2.3030    -4.1840 hc         1 0K1       0.066450
     54 H21          3.8940     2.0090    -3.3710 hc         1 0K1       0.066450
     55 H22          3.8700    -1.7220    -4.1100 hc         1 0K1       0.066450
     56 H23          2.9420    -0.3980    -3.3170 hc         1 0K1       0.066450
     57 H24          3.3320    -0.6090    -7.6480 hc         1 0K1       0.068200
     58 H25          4.0900    -1.8620    -6.5820 hc         1 0K1       0.068200
     59 H26          6.9190     0.1650    -0.8380 h1         1 0K1       0.065033
     60 H27          7.7660    -0.8680     0.4230 h1         1 0K1       0.065033
     61 H28          7.6170     0.9360     0.6740 h1         1 0K1       0.065033
     62 H162         1.8220     1.3740    -3.7700 hn         1 0K1       0.466800
@<TRIPOS>BOND
     1     1     2 ar  
     2     1     3 ar  
     3     1    11 1   
     4     2     4 ar  
     5     2    34 1   
     6     3     5 ar  
     7     3    35 1   
     8     4     6 ar  
     9     4    12 1   
    10     5     6 ar  
    11     5    36 1   
    12     6    37 1   
    13     7     8 ar  
    14     7    28 ar  
    15     7    32 1   
    16     8     9 ar  
    17     8    33 1   
    18     9    11 ar  
    19    10    11 ar  
    20    10    28 ar  
    21    10    38 1   
    22    12    13 2   
    23    12    14 1   
    24    13    30 1   
    25    13    41 1   
    26    14    29 2   
    27    14    42 1   
    28    15    16 1   
    29    15    17 1   
    30    15    22 1   
    31    15    43 1   
    32    16    26 1   
    33    16    27 1   
    34    16    44 1   
    35    17    23 1   
    36    17    25 1   
    37    17    45 1   
    38    18    20 1   
    39    18    24 1   
    40    18    25 1   
    41    18    26 1   
    42    19    20 1   
    43    19    23 1   
    44    19    27 1   
    45    19    46 1   
    46    20    47 1   
    47    20    48 1   
    48    21    33 2   
    49    22    33 1   
    50    22    49 1   
    51    22    62 1   
    52    23    50 1   
    53    23    51 1   
    54    24    52 1   
    55    25    53 1   
    56    25    54 1   
    57    26    55 1   
    58    26    56 1   
    59    27    57 1   
    60    27    58 1   
    61    29    30 1   
    62    30    31 1   
    63    31    59 1   
    64    31    60 1   
    65    31    61 1   
    66    32    39 1   
    67    32    40 1   
@<TRIPOS>SUBSTRUCTURE
     1 0K1         1 TEMP              0 ****  ****    0 ROOT
