@<TRIPOS>MOLECULE
0K2
   21    20     1     0     0
SMALL
bcc


@<TRIPOS>ATOM
      1 O20          0.0000     0.0000     0.0000 o          1 0K2      -0.777833
      2 P17          1.4790     0.0000     0.0000 p5         1 0K2       0.746900
      3 O18          2.0160     0.0000     1.5180 o          1 0K2      -0.777833
      4 O19          2.0160    -1.3150    -0.7580 o          1 0K2      -0.777833
      5 O16          2.0170     1.3140    -0.7590 os         1 0K2      -0.449800
      6 P13          1.5530     2.1100    -2.0790 p5         1 0K2       0.879800
      7 O15          0.0810     2.2680    -2.0690 o          1 0K2      -0.705500
      8 O14          1.9960     1.2840    -3.3880 o          1 0K2      -0.705500
      9 O29          2.2470     3.5630    -2.1010 os         1 0K2      -0.494200
     10 C28          1.9550     4.5510    -3.0910 c3         1 0K2       0.306400
     11 C27          2.7840     5.8070    -2.8190 c3         1 0K2      -0.050400
     12 C30          2.4710     6.8650    -3.8800 c3         1 0K2      -0.151400
     13 C13          3.2890     8.1020    -3.6110 c          1 0K2       0.656900
     14 O33          4.0000     8.5550    -4.4760 o          1 0K2      -0.634100
     15 H4           2.2010     4.1620    -4.0720 h1         1 0K2      -0.033800
     16 H5           0.9010     4.7990    -3.0550 h1         1 0K2      -0.033800
     17 H6           2.5390     6.1950    -1.8370 hc         1 0K2       0.006200
     18 H7           3.8380     5.5590    -2.8560 hc         1 0K2       0.006200
     19 H8           2.7160     6.4770    -4.8610 hc         1 0K2       0.027700
     20 H9           1.4180     7.1140    -3.8420 hc         1 0K2       0.027700
     21 H10          3.2090     8.6070    -2.6560 h4         1 0K2      -0.065800
@<TRIPOS>BOND
     1     1     2 1   
     2     2     3 1   
     3     2     4 1   
     4     2     5 1   
     5     5     6 1   
     6     6     7 1   
     7     6     8 1   
     8     6     9 1   
     9     9    10 1   
    10    10    11 1   
    11    10    15 1   
    12    10    16 1   
    13    11    12 1   
    14    11    17 1   
    15    11    18 1   
    16    12    13 1   
    17    12    19 1   
    18    12    20 1   
    19    13    14 2   
    20    13    21 1   
@<TRIPOS>SUBSTRUCTURE
     1 0K2         1 TEMP              0 ****  ****    0 ROOT
