@<TRIPOS>MOLECULE
molecule
   21    20     1     0     0
SMALL
bcc


@<TRIPOS>ATOM
      1 O20          0.0000     0.0000     0.0000 o          1 0K2      -0.947833
      2 P17          1.4790     0.0000     0.0000 p5         1 0K2       1.296900
      3 O18          2.0160     0.0000     1.5180 o          1 0K2      -0.947833
      4 O19          2.0160    -1.3150    -0.7580 o          1 0K2      -0.947833
      5 O16          2.0170     1.3140    -0.7590 os         1 0K2      -0.708800
      6 P13          1.5530     2.1100    -2.0790 p5         1 0K2       1.413800
      7 O15          0.0810     2.2680    -2.0690 o          1 0K2      -0.861000
      8 O14          1.9960     1.2840    -3.3880 o          1 0K2      -0.861000
      9 O29          2.2470     3.5630    -2.1010 os         1 0K2      -0.595200
     10 C28          1.9550     4.5510    -3.0910 c3         1 0K2       0.237400
     11 C27          2.7840     5.8070    -2.8190 c3         1 0K2      -0.089400
     12 C30          2.4710     6.8650    -3.8800 c3         1 0K2      -0.203400
     13 C13          3.2890     8.1020    -3.6110 c          1 0K2       0.579900
     14 O33          4.0000     8.5550    -4.4760 o          1 0K2      -0.581100
     15 H4           0.9010     4.7990    -3.0550 h1         1 0K2       0.015200
     16 H5           2.2010     4.1620    -4.0720 h1         1 0K2       0.015200
     17 H6           2.5390     6.1950    -1.8370 hc         1 0K2       0.043200
     18 H7           3.8380     5.5590    -2.8560 hc         1 0K2       0.043200
     19 H8           1.4180     7.1140    -3.8420 hc         1 0K2       0.062200
     20 H9           2.7160     6.4770    -4.8610 hc         1 0K2       0.062200
     21 H10          3.2090     8.6070    -2.6560 h4         1 0K2      -0.024800
@<TRIPOS>BOND
     1    12    13 1   
     2    12    11 1   
     3    13    14 2   
     4    10    11 1   
     5    10     9 1   
     6     9     6 1   
     7     1     2 1   
     8     3     2 1   
     9     6     5 1   
    10     6     7 1   
    11     6     8 1   
    12     2     5 1   
    13     2     4 1   
    14    10    15 1   
    15    10    16 1   
    16    11    17 1   
    17    11    18 1   
    18    12    19 1   
    19    12    20 1   
    20    13    21 1   
@<TRIPOS>SUBSTRUCTURE
     1 0K2         1 TEMP              0 ****  ****    0 ROOT
