@<TRIPOS>MOLECULE
0K2
   21    20     1     0     0
SMALL
bcc


@<TRIPOS>ATOM
      1 O20         -0.5700    -0.9660    -0.7150 o          1 0K2      -0.900000
      2 P17          0.6320    -0.8430    -1.5710 p5         1 0K2       1.596800
      3 O18          1.8470    -1.6460    -0.8000 oh         1 0K2      -0.814400
      4 O19          0.5980    -1.3330    -2.9690 o          1 0K2      -0.900000
      5 O16          1.3210     0.6270    -1.4590 os         1 0K2      -0.831800
      6 P13          1.9740     2.1350    -1.5060 p5         1 0K2       1.594800
      7 O15          0.9320     3.1010    -1.9210 o          1 0K2      -0.891000
      8 O14          3.2770     2.0530    -2.2020 o          1 0K2      -0.891000
      9 O29          2.3160     2.3320     0.0950 os         1 0K2      -0.608200
     10 C28          1.7320     3.3970     0.7880 c3         1 0K2       0.190400
     11 C27          2.7760     4.1670     1.6040 c3         1 0K2       0.029800
     12 C30          2.1700     5.2830     2.3530 c2         1 0K2      -0.552200
     13 C13          2.7170     5.9240     3.4330 c2         1 0K2       0.529100
     14 O33          3.8200     5.7430     4.0540 o          1 0K2      -0.890300
     15 H4           1.2140     4.0860     0.0650 h1         1 0K2       0.009200
     16 H5           0.9610     2.9810     1.5000 h1         1 0K2       0.009200
     17 H6           3.5690     4.5440     0.9010 hc         1 0K2      -0.001800
     18 H7           3.2920     3.4560     2.3030 hc         1 0K2      -0.001800
     19 H8           2.4830    -1.0650    -0.4040 ho         1 0K2       0.423000
     20 H9           1.1940     5.6250     1.9860 ha         1 0K2       0.062000
     21 H10          2.0700     6.7630     3.8400 h4         1 0K2      -0.160800
@<TRIPOS>BOND
     1     1     2 1   
     2     2     3 1   
     3     2     4 1   
     4     2     5 1   
     5     3    19 1   
     6     5     6 1   
     7     6     7 1   
     8     6     8 1   
     9     6     9 1   
    10     9    10 1   
    11    10    11 1   
    12    10    15 1   
    13    10    16 1   
    14    11    12 1   
    15    11    17 1   
    16    11    18 1   
    17    12    13 2   
    18    12    20 1   
    19    13    14 1   
    20    13    21 1   
@<TRIPOS>SUBSTRUCTURE
     1 0K2         1 TEMP              0 ****  ****    0 ROOT
