@<TRIPOS>MOLECULE
0K3
  110   111     1     0     0
SMALL
bcc


@<TRIPOS>ATOM
      1 O2           0.0000     0.0000     0.0000 o          1 0K3      -0.750500
      2 P            1.4800     0.0000     0.0000 p5         1 0K3       0.897500
      3 O            2.0170     0.0000     1.5180 o          1 0K3      -0.750500
      4 O1           2.0170    -1.3140    -0.7600 o          1 0K3      -0.750500
      5 O3           2.0160     1.3150    -0.7580 os         1 0K3      -0.631000
      6 C            1.6270     1.6590    -2.0900 c3         1 0K3       0.143000
      7 C1           2.3060     2.9420    -2.4950 c2         1 0K3      -0.064000
      8 C2           1.6300     3.8680    -3.1290 c2         1 0K3      -0.273000
      9 C3           2.2730     5.1980    -3.4280 c3         1 0K3      -0.040000
     10 C4           0.2090     3.6040    -3.5570 c3         1 0K3      -0.061000
     11 C5          -0.7510     4.1120    -2.4800 DU         1 0K3      -0.148000
     12 C6          -2.1720     3.8490    -2.9080 c2         1 0K3      -0.622000
     13 C7          -2.9450     3.0820    -2.1790 c2         1 0K3       0.066000
     14 C8          -4.4050     2.9400    -2.5210 c3         1 0K3      -0.081000
     15 C9          -2.3730     2.3430    -0.9970 c3         1 0K3      -0.153000
     16 C10         -2.5470     3.1880     0.2660 c3         1 0K3      -0.065000
     17 C11         -1.9740     2.4480     1.4490 c2         1 0K3      -0.128000
     18 C12         -0.9410     2.9360     2.0890 c2         1 0K3      -0.103000
     19 C13         -0.4000     2.2220     3.3010 c3         1 0K3      -0.064000
     20 C14         -0.2930     4.2110     1.6140 c3         1 0K3      -0.092000
     21 C15         -0.9280     5.4040     2.3310 DU         1 0K3      -0.159000
     22 C16         -0.2800     6.6790     1.8550 c2         1 0K3      -0.529000
     23 C17         -0.9890     7.5750     1.2160 c2         1 0K3       0.003000
     24 C39         -0.3660     8.8900     0.8230 c3         1 0K3      -0.068000
     25 C18         -2.4280     7.2910     0.8720 c3         1 0K3      -0.137000
     26 C19         -3.3350     7.8580     1.9670 c3         1 0K3      -0.076000
     27 C20         -4.7750     7.5730     1.6240 c2         1 0K3      -0.154000
     28 C21         -5.4930     6.7980     2.3970 c2         1 0K3      -0.138000
     29 C22         -6.9670     6.6280     2.1350 c3         1 0K3      -0.061000
     30 C23         -4.8440     6.0760     3.5500 c3         1 0K3      -0.096000
     31 C24         -5.0390     6.8860     4.8330 c3         1 0K3      -0.154000
     32 C25         -4.3890     6.1630     5.9860 c2         1 0K3      -0.513000
     33 C26         -3.4150     6.7330     6.6510 c2         1 0K3       0.048000
     34 C27         -2.8730     6.0830     7.8980 c3         1 0K3      -0.078000
     35 C28         -2.8350     8.0370     6.1690 c3         1 0K3      -0.138000
     36 C29         -3.5610     9.2010     6.8480 c3         1 0K3      -0.081000
     37 C30         -2.9810    10.5050     6.3650 c2         1 0K3      -0.152000
     38 C31         -3.7400    11.3640     5.7320 c2         1 0K3      -0.144000
     39 C32         -3.2070    12.7320     5.3910 c3         1 0K3      -0.060000
     40 C33         -5.1460    10.9860     5.3440 c3         1 0K3      -0.067000
     41 C34         -6.1190    11.4630     6.4230 c3         1 0K3      -0.079000
     42 C35         -7.5250    11.0840     6.0360 c2         1 0K3      -0.154000
     43 C36         -8.4630    11.9980     6.0000 c2         1 0K3      -0.154000
     44 C38         -8.1540    13.4130     6.4170 c3         1 0K3      -0.060500
     45 C37         -9.8510    11.6340     5.5400 c3         1 0K3      -0.060500
     46 H3           0.5530     1.7900    -2.1300 h1         1 0K3       0.015500
     47 H4           1.9200     0.8660    -2.7680 h1         1 0K3       0.015500
     48 H5           3.3580     3.0880    -2.2830 ha         1 0K3       0.089000
     49 H6           3.1130     5.0500    -4.0960 hc         1 0K3       0.026000
     50 H7           1.5480     5.8510    -3.8990 hc         1 0K3       0.026000
     51 H8           2.6190     5.6470    -2.5060 hc         1 0K3       0.026000
     52 H9           0.0110     4.1190    -4.4900 hc         1 0K3       0.063000
     53 H10          0.0650     2.5390    -3.6960 hc         1 0K3       0.063000
     54 H11         -0.5530     3.5970    -1.5470 ha         1 0K3       0.088500
     55 H12         -0.6080     5.1770    -2.3410 ha         1 0K3       0.088500
     56 H13         -1.3750     3.1510    -3.1390 DU         1 0K3       0.356000
     57 H14         -4.8370     3.9220    -2.6730 hc         1 0K3       0.043333
     58 H15         -4.5090     2.3560    -3.4280 hc         1 0K3       0.043333
     59 H16         -4.9200     2.4410    -1.7090 hc         1 0K3       0.043333
     60 H17         -1.3190     2.1550    -1.1640 hc         1 0K3       0.117500
     61 H18         -2.8920     1.4000    -0.8750 hc         1 0K3       0.117500
     62 H19         -2.0270     4.1310     0.1440 hc         1 0K3       0.036000
     63 H20         -3.6000     3.3750     0.4330 hc         1 0K3       0.036000
     64 H21         -2.4470     1.5380     1.7980 ha         1 0K3       0.120000
     65 H22          0.6510     2.4540     3.4170 hc         1 0K3       0.054667
     66 H23         -0.5230     1.1530     3.1750 hc         1 0K3       0.054667
     67 H24         -0.9410     2.5470     4.1820 hc         1 0K3       0.054667
     68 H25         -0.4390     4.3130     0.5450 hc         1 0K3       0.091000
     69 H26          0.7670     4.1810     1.8320 hc         1 0K3       0.091000
     70 H27         -1.9890     5.4340     2.1120 ha         1 0K3       0.072500
     71 H28         -0.7830     5.3020     3.4000 ha         1 0K3       0.072500
     72 H29         -0.4410     5.8290     1.2030 DU         1 0K3       0.368000
     73 H30         -1.0440     9.4320     0.1760 hc         1 0K3       0.046333
     74 H31          0.5640     8.7060     0.3000 hc         1 0K3       0.046333
     75 H32         -0.1700     9.4760     1.7130 hc         1 0K3       0.046333
     76 H33         -2.5780     6.2210     0.7970 hc         1 0K3       0.080500
     77 H34         -2.6720     7.7570    -0.0750 hc         1 0K3       0.080500
     78 H35         -3.0910     7.3930     2.9140 hc         1 0K3       0.062500
     79 H36         -3.1860     8.9280     2.0410 hc         1 0K3       0.062500
     80 H37         -5.2220     8.0280     0.7480 ha         1 0K3       0.106000
     81 H38         -7.3640     7.5380     1.7030 hc         1 0K3       0.044333
     82 H39         -7.4770     6.4180     3.0670 hc         1 0K3       0.044333
     83 H40         -7.1190     5.8050     1.4470 hc         1 0K3       0.044333
     84 H41         -3.7850     5.9600     3.3540 hc         1 0K3       0.088500
     85 H42         -5.2980     5.1000     3.6670 hc         1 0K3       0.088500
     86 H43         -4.5840     7.8620     4.7170 hc         1 0K3       0.074500
     87 H44         -6.0980     7.0010     5.0300 hc         1 0K3       0.074500
     88 H45         -3.9560     6.1400     4.9940 ha         1 0K3       0.332000
     89 H46         -3.4060     6.4610     8.7620 hc         1 0K3       0.055667
     90 H47         -1.8190     6.3120     7.9950 hc         1 0K3       0.055667
     91 H48         -3.0060     5.0100     7.8330 hc         1 0K3       0.055667
     92 H49         -2.9590     8.1120     5.0950 hc         1 0K3       0.077500
     93 H50         -1.7810     8.0760     6.4140 hc         1 0K3       0.077500
     94 H51         -4.6150     9.1610     6.6020 hc         1 0K3       0.069500
     95 H52         -3.4370     9.1260     7.9210 hc         1 0K3       0.069500
     96 H53         -1.9480    10.7510     6.5810 ha         1 0K3       0.107000
     97 H54         -3.7950    13.1590     4.5870 hc         1 0K3       0.043000
     98 H55         -2.1730    12.6490     5.0770 hc         1 0K3       0.043000
     99 H56         -3.2690    13.3720     6.2630 hc         1 0K3       0.043000
    100 H57         -5.2160     9.9090     5.2450 hc         1 0K3       0.070000
    101 H58         -5.3970    11.4520     4.3990 hc         1 0K3       0.070000
    102 H59         -6.0500    12.5390     6.5220 hc         1 0K3       0.063000
    103 H60         -5.8670    10.9970     7.3680 hc         1 0K3       0.063000
    104 H61         -7.7650    10.0520     5.8130 ha         1 0K3       0.111000
    105 H62         -9.0660    13.9970     6.4150 hc         1 0K3       0.043833
    106 H63         -7.7290    13.4100     7.4140 hc         1 0K3       0.043833
    107 H64         -7.4450    13.8480     5.7230 hc         1 0K3       0.043833
    108 H65         -9.8730    11.5870     4.4580 hc         1 0K3       0.043833
    109 H66        -10.5530    12.3840     5.8830 hc         1 0K3       0.043833
    110 H67        -10.1260    10.6690     5.9490 hc         1 0K3       0.043833
@<TRIPOS>BOND
     1     1     2 1   
     2     2     3 1   
     3     2     4 1   
     4     2     5 1   
     5     5     6 1   
     6     6     7 1   
     7     6    46 1   
     8     6    47 1   
     9     7     8 1   
    10     7    48 1   
    11     8     9 1   
    12     8    10 1   
    13     9    49 1   
    14     9    50 1   
    15     9    51 1   
    16    10    11 1   
    17    10    52 1   
    18    10    53 1   
    19    11    12 1   
    20    11    54 1   
    21    11    55 1   
    22    11    56 1   
    23    12    13 1   
    24    12    56 1   
    25    13    14 1   
    26    13    15 1   
    27    14    57 1   
    28    14    58 1   
    29    14    59 1   
    30    15    16 1   
    31    15    60 1   
    32    15    61 1   
    33    16    17 1   
    34    16    62 1   
    35    16    63 1   
    36    17    18 1   
    37    17    64 1   
    38    18    19 1   
    39    18    20 1   
    40    19    65 1   
    41    19    66 1   
    42    19    67 1   
    43    20    21 1   
    44    20    68 1   
    45    20    69 1   
    46    21    22 1   
    47    21    70 1   
    48    21    71 1   
    49    21    72 1   
    50    22    23 1   
    51    22    72 1   
    52    23    24 1   
    53    23    25 1   
    54    24    73 1   
    55    24    74 1   
    56    24    75 1   
    57    25    26 1   
    58    25    76 1   
    59    25    77 1   
    60    26    27 1   
    61    26    78 1   
    62    26    79 1   
    63    27    28 1   
    64    27    80 1   
    65    28    29 1   
    66    28    30 1   
    67    29    81 1   
    68    29    82 1   
    69    29    83 1   
    70    30    31 1   
    71    30    84 1   
    72    30    85 1   
    73    31    32 1   
    74    31    86 1   
    75    31    87 1   
    76    32    33 1   
    77    32    88 1   
    78    33    34 1   
    79    33    35 1   
    80    34    89 1   
    81    34    90 1   
    82    34    91 1   
    83    35    36 1   
    84    35    92 1   
    85    35    93 1   
    86    36    37 1   
    87    36    94 1   
    88    36    95 1   
    89    37    38 1   
    90    37    96 1   
    91    38    39 1   
    92    38    40 1   
    93    39    97 1   
    94    39    98 1   
    95    39    99 1   
    96    40    41 1   
    97    40   100 1   
    98    40   101 1   
    99    41    42 1   
   100    41   102 1   
   101    41   103 1   
   102    42    43 1   
   103    42   104 1   
   104    43    44 1   
   105    43    45 1   
   106    44   105 1   
   107    44   106 1   
   108    44   107 1   
   109    45   108 1   
   110    45   109 1   
   111    45   110 1   
@<TRIPOS>SUBSTRUCTURE
     1 0K3         1 TEMP              0 ****  ****    0 ROOT
