@<TRIPOS>MOLECULE
molecule
  110   109     1     0     0
SMALL
bcc


@<TRIPOS>ATOM
      1 O2           0.0000     0.0000     0.0000 o          1 0K3      -0.910167
      2 P            1.4800     0.0000     0.0000 p5         1 0K3       1.179900
      3 O            2.0170     0.0000     1.5180 o          1 0K3      -0.910167
      4 O1           2.0170    -1.3140    -0.7600 o          1 0K3      -0.910167
      5 O3           2.0160     1.3150    -0.7580 os         1 0K3      -0.576200
      6 C            1.6270     1.6590    -2.0900 c3         1 0K3       0.234600
      7 C1           2.3060     2.9420    -2.4950 c2         1 0K3      -0.103200
      8 C2           1.6300     3.8680    -3.1290 c2         1 0K3      -0.227400
      9 C3           2.2730     5.1980    -3.4280 c3         1 0K3      -0.033900
     10 C4           0.2090     3.6040    -3.5570 c3         1 0K3      -0.019200
     11 C5          -0.7510     4.1120    -2.4800 c3         1 0K3      -0.051200
     12 C6          -2.1720     3.8490    -2.9080 c2         1 0K3      -0.199200
     13 C7          -2.9450     3.0820    -2.1790 c2         1 0K3      -0.122400
     14 C8          -4.4050     2.9400    -2.5210 c3         1 0K3      -0.050900
     15 C9          -2.3730     2.3430    -0.9970 c3         1 0K3      -0.042200
     16 C10         -2.5470     3.1880     0.2660 c3         1 0K3      -0.044200
     17 C11         -1.9740     2.4480     1.4490 c2         1 0K3      -0.142200
     18 C12         -0.9410     2.9360     2.0890 c2         1 0K3      -0.109400
     19 C13         -0.4000     2.2220     3.3010 c3         1 0K3      -0.039900
     20 C14         -0.2930     4.2110     1.6140 c3         1 0K3      -0.036200
     21 C15         -0.9280     5.4040     2.3310 c3         1 0K3      -0.063200
     22 C16         -0.2800     6.6790     1.8550 c2         1 0K3      -0.137200
     23 C17         -0.9890     7.5750     1.2160 c2         1 0K3      -0.172400
     24 C39         -0.3660     8.8900     0.8230 c3         1 0K3      -0.043900
     25 C18         -2.4280     7.2910     0.8720 c3         1 0K3      -0.035200
     26 C19         -3.3350     7.8580     1.9670 c3         1 0K3      -0.052200
     27 C20         -4.7750     7.5730     1.6240 c2         1 0K3      -0.172200
     28 C21         -5.4930     6.7980     2.3970 c2         1 0K3      -0.132400
     29 C22         -6.9670     6.6280     2.1350 c3         1 0K3      -0.049900
     30 C23         -4.8440     6.0760     3.5500 c3         1 0K3      -0.041200
     31 C24         -5.0390     6.8860     4.8330 c3         1 0K3      -0.054200
     32 C25         -4.3890     6.1630     5.9860 c2         1 0K3      -0.161200
     33 C26         -3.4150     6.7330     6.6510 c2         1 0K3      -0.142400
     34 C27         -2.8730     6.0830     7.8980 c3         1 0K3      -0.048900
     35 C28         -2.8350     8.0370     6.1690 c3         1 0K3      -0.037200
     36 C29         -3.5610     9.2010     6.8480 c3         1 0K3      -0.057200
     37 C30         -2.9810    10.5050     6.3650 c2         1 0K3      -0.160200
     38 C31         -3.7400    11.3640     5.7320 c2         1 0K3      -0.153400
     39 C32         -3.2070    12.7320     5.3910 c3         1 0K3      -0.048900
     40 C33         -5.1460    10.9860     5.3440 c3         1 0K3      -0.002200
     41 C34         -6.1190    11.4630     6.4230 c3         1 0K3      -0.087200
     42 C35         -7.5250    11.0840     6.0360 c2         1 0K3      -0.497200
     43 C36         -8.4630    11.9980     6.0000 c2         1 0K3       0.016600
     44 C38         -8.1540    13.4130     6.4170 c3         1 0K3      -0.091400
     45 C37         -9.8510    11.6340     5.5400 c3         1 0K3      -0.091400
     46 H3           0.5530     1.7900    -2.1300 h1         1 0K3       0.022700
     47 H4           1.9200     0.8660    -2.7680 h1         1 0K3       0.022700
     48 H5           3.3270     3.1330    -2.1870 ha         1 0K3       0.115000
     49 H6           1.5470     5.8530    -3.8950 hc         1 0K3       0.016700
     50 H7           3.1110     5.0510    -4.0990 hc         1 0K3       0.016700
     51 H8           2.6230     5.6450    -2.5060 hc         1 0K3       0.016700
     52 H9           0.0110     4.1190    -4.4900 hc         1 0K3       0.036700
     53 H10          0.0650     2.5390    -3.6960 hc         1 0K3       0.036700
     54 H11         -0.6080     5.1770    -2.3410 hc         1 0K3       0.061200
     55 H12         -0.5530     3.5970    -1.5470 hc         1 0K3       0.061200
     56 H13         -2.5850     4.3800    -3.7570 ha         1 0K3       0.089000
     57 H14         -4.5040     2.5410    -3.5230 hc         1 0K3       0.025700
     58 H15         -4.8780     2.2670    -1.8160 hc         1 0K3       0.025700
     59 H16         -4.8840     3.9110    -2.4700 hc         1 0K3       0.025700
     60 H17         -2.8920     1.4000    -0.8750 hc         1 0K3       0.093200
     61 H18         -1.3190     2.1550    -1.1640 hc         1 0K3       0.093200
     62 H19         -3.6000     3.3750     0.4330 hc         1 0K3       0.020700
     63 H20         -2.0270     4.1310     0.1440 hc         1 0K3       0.020700
     64 H21         -2.4400     1.5320     1.7910 ha         1 0K3       0.135000
     65 H22          0.6810     2.2780     3.3000 hc         1 0K3       0.042367
     66 H23         -0.7860     2.6920     4.1980 hc         1 0K3       0.042367
     67 H24         -0.7080     1.1840     3.2760 hc         1 0K3       0.042367
     68 H25          0.7670     4.1810     1.8320 hc         1 0K3       0.060700
     69 H26         -0.4390     4.3140     0.5450 hc         1 0K3       0.060700
     70 H27         -0.7830     5.3020     3.4000 hc         1 0K3       0.043700
     71 H28         -1.9890     5.4340     2.1120 hc         1 0K3       0.043700
     72 H29          0.7550     6.8830     2.1020 ha         1 0K3       0.118000
     73 H30         -0.1360     9.4600     1.7150 hc         1 0K3       0.028700
     74 H31          0.5450     8.7060     0.2670 hc         1 0K3       0.028700
     75 H32         -1.0590     9.4480     0.2060 hc         1 0K3       0.028700
     76 H33         -2.6720     7.7570    -0.0750 hc         1 0K3       0.057200
     77 H34         -2.5780     6.2210     0.7970 hc         1 0K3       0.057200
     78 H35         -3.1860     8.9280     2.0410 hc         1 0K3       0.046700
     79 H36         -3.0910     7.3930     2.9140 hc         1 0K3       0.046700
     80 H37         -5.2430     8.0920     0.7960 ha         1 0K3       0.114000
     81 H38         -7.3690     5.8790     2.8070 hc         1 0K3       0.035367
     82 H39         -7.1170     6.3110     1.1100 hc         1 0K3       0.035367
     83 H40         -7.4740     7.5710     2.3000 hc         1 0K3       0.035367
     84 H41         -3.7850     5.9600     3.3540 hc         1 0K3       0.063200
     85 H42         -5.2980     5.1000     3.6670 hc         1 0K3       0.063200
     86 H43         -6.0980     7.0010     5.0300 hc         1 0K3       0.048700
     87 H44         -4.5840     7.8620     4.7170 hc         1 0K3       0.048700
     88 H45         -4.8030     5.2250     6.3350 ha         1 0K3       0.125000
     89 H46         -3.5820     6.2090     8.7080 hc         1 0K3       0.037700
     90 H47         -2.7170     5.0270     7.7160 hc         1 0K3       0.037700
     91 H48         -1.9320     6.5470     8.1670 hc         1 0K3       0.037700
     92 H49         -2.9590     8.1120     5.0950 hc         1 0K3       0.057200
     93 H50         -1.7810     8.0760     6.4140 hc         1 0K3       0.057200
     94 H51         -4.6150     9.1610     6.6020 hc         1 0K3       0.050700
     95 H52         -3.4370     9.1260     7.9210 hc         1 0K3       0.050700
     96 H53         -1.9700    10.7790     6.6420 ha         1 0K3       0.122000
     97 H54         -3.8160    13.1730     4.6100 hc         1 0K3       0.036367
     98 H55         -2.1840    12.6450     5.0450 hc         1 0K3       0.036367
     99 H56         -3.2380    13.3620     6.2720 hc         1 0K3       0.036367
    100 H57         -5.3970    11.4520     4.3990 hc         1 0K3       0.069200
    101 H58         -5.2160     9.9090     5.2450 hc         1 0K3       0.069200
    102 H59         -6.0500    12.5390     6.5220 hc         1 0K3       0.029700
    103 H60         -5.8670    10.9970     7.3680 hc         1 0K3       0.029700
    104 H61         -7.2110    11.2040     7.0660 ha         1 0K3       0.332000
    105 H62         -7.4450    13.8480     5.7230 hc         1 0K3       0.048033
    106 H63         -7.7290    13.4100     7.4140 hc         1 0K3       0.048033
    107 H64         -9.0660    13.9970     6.4150 hc         1 0K3       0.048033
    108 H65        -10.5740    11.9730     6.2720 hc         1 0K3       0.048033
    109 H66        -10.0520    12.1090     4.5880 hc         1 0K3       0.048033
    110 H67         -9.9250    10.5590     5.4300 hc         1 0K3       0.048033
@<TRIPOS>BOND
     1    45    43 1   
     2    43    44 1   
     3    43    42 2   
     4    41    42 1   
     5    41    40 1   
     6    34    33 1   
     7    40    38 1   
     8    36    35 1   
     9    36    37 1   
    10    33    35 1   
    11    33    32 2   
    12    38    37 2   
    13    38    39 1   
    14    32    31 1   
    15    31    30 1   
    16    30    28 1   
    17    29    28 1   
    18    28    27 2   
    19    27    26 1   
    20    26    25 1   
    21    24    23 1   
    22    23    25 1   
    23    23    22 2   
    24    22    21 1   
    25    21    20 1   
    26    20    18 1   
    27    18    17 2   
    28    18    19 1   
    29    14    13 1   
    30    16    17 1   
    31    16    15 1   
    32    15    13 1   
    33    13    12 2   
    34    12    11 1   
    35    11    10 1   
    36    10     8 1   
    37     9     8 1   
    38     8     7 2   
    39     7     6 1   
    40     6     5 1   
    41     5     2 1   
    42     2     1 1   
    43     2     4 1   
    44     2     3 1   
    45     6    46 1   
    46     6    47 1   
    47     7    48 1   
    48     9    49 1   
    49     9    50 1   
    50     9    51 1   
    51    10    52 1   
    52    10    53 1   
    53    11    54 1   
    54    11    55 1   
    55    12    56 1   
    56    14    57 1   
    57    14    58 1   
    58    14    59 1   
    59    15    60 1   
    60    15    61 1   
    61    16    62 1   
    62    16    63 1   
    63    17    64 1   
    64    19    65 1   
    65    19    66 1   
    66    19    67 1   
    67    20    68 1   
    68    20    69 1   
    69    21    70 1   
    70    21    71 1   
    71    22    72 1   
    72    24    73 1   
    73    24    74 1   
    74    24    75 1   
    75    25    76 1   
    76    25    77 1   
    77    26    78 1   
    78    26    79 1   
    79    27    80 1   
    80    29    81 1   
    81    29    82 1   
    82    29    83 1   
    83    30    84 1   
    84    30    85 1   
    85    31    86 1   
    86    31    87 1   
    87    32    88 1   
    88    34    89 1   
    89    34    90 1   
    90    34    91 1   
    91    35    92 1   
    92    35    93 1   
    93    36    94 1   
    94    36    95 1   
    95    37    96 1   
    96    39    97 1   
    97    39    98 1   
    98    39    99 1   
    99    40   100 1   
   100    40   101 1   
   101    41   102 1   
   102    41   103 1   
   103    42   104 1   
   104    44   105 1   
   105    44   106 1   
   106    44   107 1   
   107    45   108 1   
   108    45   109 1   
   109    45   110 1   
@<TRIPOS>SUBSTRUCTURE
     1 0K3         1 TEMP              0 ****  ****    0 ROOT
