@<TRIPOS>MOLECULE
molecule
  110   109     1     0     0
SMALL
bcc


@<TRIPOS>ATOM
      1 O2           0.0000     0.0000     0.0000 o          1 0K3      -0.837500
      2 P            1.6130     0.0000     0.0000 p5         1 0K3       1.230900
      3 O            2.1200     0.0000     1.3920 o          1 0K3      -0.837500
      4 O1           2.1850    -1.2970    -0.7620 o          1 0K3      -0.837500
      5 O3           2.1140     1.3390    -0.7350 os         1 0K3      -0.193200
      6 C            3.4330     1.4330    -1.2560 c3         1 0K3       0.354600
      7 C1           4.2800     2.1880    -0.2650 c2         1 0K3      -0.218200
      8 C2           4.7900     3.3840    -0.5730 c2         1 0K3      -0.148400
      9 C3           5.6270     4.0990     0.4450 c3         1 0K3      -0.083900
     10 C4           4.4930     4.0020    -1.9200 c3         1 0K3      -0.035200
     11 C5           5.7780     4.4960    -2.5740 c3         1 0K3      -0.051200
     12 C6           5.5370     4.7970    -4.0350 c2         1 0K3      -0.146200
     13 C7           6.3880     5.5960    -4.6950 c2         1 0K3      -0.152400
     14 C8           6.1750     5.9140    -6.1430 c3         1 0K3      -0.048900
     15 C9           7.5490     6.1760    -3.9270 c3         1 0K3      -0.040200
     16 C10          8.6400     6.7580    -4.8150 c3         1 0K3      -0.121200
     17 C11          9.9440     6.3890    -4.1490 c2         1 0K3      -0.338200
     18 C12         10.9560     7.2590    -4.0430 c2         1 0K3      -0.139400
     19 C13         12.2350     6.8580    -3.3700 c3         1 0K3      -0.500900
     20 C14         10.7930     8.6520    -4.5880 c3         1 0K3       0.002800
     21 C15         12.0150     9.0640    -5.3970 c3         1 0K3      -0.052200
     22 C16         11.4830     9.9370    -6.5030 c2         1 0K3      -0.123200
     23 C17         12.2550    10.8320    -7.1210 c2         1 0K3      -0.151400
     24 C39         11.6950    11.6900    -8.2170 c3         1 0K3      -0.044900
     25 C18         13.6950    10.9830    -6.7280 c3         1 0K3      -0.023200
     26 C19         14.1650    12.3010    -7.3180 c3         1 0K3      -0.087200
     27 C20         15.6670    12.2930    -7.3870 c2         1 0K3      -0.170200
     28 C21         16.3120    13.4510    -7.5430 c2         1 0K3      -0.122400
     29 C22         17.8050    13.4650    -7.6200 c3         1 0K3      -0.093900
     30 C23         15.5410    14.7420    -7.6440 c3         1 0K3      -0.035200
     31 C24         16.4850    15.8800    -7.2830 c3         1 0K3      -0.051200
     32 C25         16.5120    16.8990    -8.3950 c2         1 0K3      -0.149200
     33 C26         17.1390    18.0660    -8.2050 c2         1 0K3      -0.143400
     34 C27         17.1610    19.0810    -9.3100 c3         1 0K3      -0.051900
     35 C28         17.8090    18.3520    -6.8790 c3         1 0K3      -0.037200
     36 C29         19.1370    19.0650    -7.1090 c3         1 0K3      -0.041200
     37 C30         20.2500    18.1890    -6.5900 c2         1 0K3      -0.157200
     38 C31         21.4800    18.2140    -7.1270 c2         1 0K3      -0.141400
     39 C32         22.5360    17.3130    -6.5590 c3         1 0K3      -0.055900
     40 C33         21.8160    19.1320    -8.2840 c3         1 0K3      -0.030200
     41 C34         20.8070    18.9630    -9.4180 c3         1 0K3      -0.041200
     42 C35         21.2930    17.9770   -10.4540 c2         1 0K3      -0.197200
     43 C36         20.4790    17.6290   -11.4630 c2         1 0K3      -0.106400
     44 C38         20.9350    16.6520   -12.5050 c3         1 0K3      -0.067400
     45 C37         19.1010    18.2150   -11.5510 c3         1 0K3      -0.067400
     46 H3           3.8400     0.4400    -1.4020 h1         1 0K3       0.062200
     47 H4           3.4170     1.9640    -2.2000 h1         1 0K3       0.062200
     48 H5           3.9460     2.4410    -1.2640 ha         1 0K3       0.081000
     49 H6           5.4510     5.1650     0.3720 hc         1 0K3       0.051367
     50 H7           5.3600     3.7560     1.4370 hc         1 0K3       0.051367
     51 H8           6.6740     3.8920     0.2610 hc         1 0K3       0.051367
     52 H9           3.8140     4.8360    -1.7890 hc         1 0K3       0.030200
     53 H10          4.0280     3.2600    -2.5590 hc         1 0K3       0.030200
     54 H11          6.5410     3.7330    -2.4860 hc         1 0K3       0.055200
     55 H12          6.1120     5.3970    -2.0730 hc         1 0K3       0.055200
     56 H13          4.7390     5.4120    -3.6370 ha         1 0K3       0.115000
     57 H14          6.2550     6.9840    -6.2930 hc         1 0K3       0.031700
     58 H15          5.1910     5.5800    -6.4460 hc         1 0K3       0.031700
     59 H16          6.9270     5.4090    -6.7380 hc         1 0K3       0.031700
     60 H17          7.1770     6.9590    -3.2770 hc         1 0K3       0.041700
     61 H18          7.9820     5.3950    -3.3140 hc         1 0K3       0.041700
     62 H19          8.5410     7.8350    -4.8730 hc         1 0K3       0.034200
     63 H20          8.5890     6.3230    -5.8050 hc         1 0K3       0.034200
     64 H21          9.6170     7.3170    -4.6000 ha         1 0K3       0.066000
     65 H22         12.7380     6.1080    -3.9680 hc         1 0K3       0.069700
     66 H23         12.8760     7.7250    -3.2640 hc         1 0K3       0.069700
     67 H24         12.0150     6.4500    -2.3900 hc         1 0K3       0.069700
     68 H25         10.6600     9.3430    -3.7650 hc         1 0K3       0.023700
     69 H26          9.9170     8.6840    -5.2250 hc         1 0K3       0.023700
     70 H27         12.7050     9.6240    -4.7760 hc         1 0K3       0.039700
     71 H28         12.5050     8.1910    -5.8100 hc         1 0K3       0.039700
     72 H29         11.5440     9.0150    -7.0690 ha         1 0K3       0.110000
     73 H30         12.2670    11.5370    -9.1240 hc         1 0K3       0.026367
     74 H31         10.6600    11.4220    -8.3930 hc         1 0K3       0.026367
     75 H32         11.7530    12.7320    -7.9240 hc         1 0K3       0.026367
     76 H33         14.2790    10.1660    -7.1330 hc         1 0K3       0.024700
     77 H34         13.7850    11.0060    -5.6490 hc         1 0K3       0.024700
     78 H35         13.8350    13.1190    -6.6890 hc         1 0K3       0.091700
     79 H36         13.7560    12.4200    -8.3140 hc         1 0K3       0.091700
     80 H37         14.9340    13.0890    -7.4360 ha         1 0K3       0.095000
     81 H38         18.1650    12.4670    -7.8380 hc         1 0K3       0.061033
     82 H39         18.1190    14.1420    -8.4050 hc         1 0K3       0.061033
     83 H40         18.2120    13.7970    -6.6730 hc         1 0K3       0.061033
     84 H41         14.7060    14.7250    -6.9540 hc         1 0K3       0.036200
     85 H42         15.1780    14.8740    -8.6560 hc         1 0K3       0.036200
     86 H43         17.4830    15.4850    -7.1320 hc         1 0K3       0.054200
     87 H44         16.1440    16.3540    -6.3700 hc         1 0K3       0.054200
     88 H45         15.4740    17.0260    -8.1130 ha         1 0K3       0.117000
     89 H46         16.8240    18.6190   -10.2310 hc         1 0K3       0.033700
     90 H47         18.1710    19.4510    -9.4400 hc         1 0K3       0.033700
     91 H48         16.5040    19.9040    -9.0580 hc         1 0K3       0.033700
     92 H49         17.1630    18.9810    -6.2780 hc         1 0K3       0.046700
     93 H50         17.9870    17.4190    -6.3580 hc         1 0K3       0.046700
     94 H51         19.1400    20.0090    -6.5790 hc         1 0K3       0.041200
     95 H52         19.2770    19.2410    -8.1690 hc         1 0K3       0.041200
     96 H53         20.2360    18.9170    -7.3910 ha         1 0K3       0.144000
     97 H54         23.4930    17.8210    -6.5770 hc         1 0K3       0.034700
     98 H55         22.5960    16.4080    -7.1520 hc         1 0K3       0.034700
     99 H56         22.2820    17.0580    -5.5370 hc         1 0K3       0.034700
    100 H57         22.8070    18.8950    -8.6510 hc         1 0K3       0.039700
    101 H58         21.7980    20.1600    -7.9410 hc         1 0K3       0.039700
    102 H59         19.8690    18.6090    -9.0060 hc         1 0K3       0.046200
    103 H60         20.6450    19.9230    -9.8920 hc         1 0K3       0.046200
    104 H61         20.3550    18.5060   -10.3330 ha         1 0K3       0.122000
    105 H62         21.2010    17.1860   -13.4090 hc         1 0K3       0.045533
    106 H63         21.7980    16.1100   -12.1390 hc         1 0K3       0.045533
    107 H64         20.1340    15.9540   -12.7200 hc         1 0K3       0.045533
    108 H65         18.6960    18.0400   -12.5400 hc         1 0K3       0.045533
    109 H66         19.1490    19.2800   -11.3630 hc         1 0K3       0.045533
    110 H67         18.4620    17.7460   -10.8120 hc         1 0K3       0.045533
@<TRIPOS>BOND
     1    45    43 1   
     2    43    44 1   
     3    43    42 2   
     4    41    42 1   
     5    41    40 1   
     6    34    33 1   
     7    40    38 1   
     8    36    35 1   
     9    36    37 1   
    10    33    35 1   
    11    33    32 2   
    12    38    37 2   
    13    38    39 1   
    14    32    31 1   
    15    31    30 1   
    16    30    28 1   
    17    29    28 1   
    18    28    27 2   
    19    27    26 1   
    20    26    25 1   
    21    24    23 1   
    22    23    25 1   
    23    23    22 2   
    24    22    21 1   
    25    21    20 1   
    26    20    18 1   
    27    18    17 2   
    28    18    19 1   
    29    14    13 1   
    30    16    17 1   
    31    16    15 1   
    32    15    13 1   
    33    13    12 2   
    34    12    11 1   
    35    11    10 1   
    36    10     8 1   
    37     9     8 1   
    38     8     7 2   
    39     7     6 1   
    40     6     5 1   
    41     5     2 1   
    42     2     1 1   
    43     2     4 1   
    44     2     3 1   
    45     6    46 1   
    46     6    47 1   
    47     7    48 1   
    48     9    49 1   
    49     9    50 1   
    50     9    51 1   
    51    10    52 1   
    52    10    53 1   
    53    11    54 1   
    54    11    55 1   
    55    12    56 1   
    56    14    57 1   
    57    14    58 1   
    58    14    59 1   
    59    15    60 1   
    60    15    61 1   
    61    16    62 1   
    62    16    63 1   
    63    17    64 1   
    64    19    65 1   
    65    19    66 1   
    66    19    67 1   
    67    20    68 1   
    68    20    69 1   
    69    21    70 1   
    70    21    71 1   
    71    22    72 1   
    72    24    73 1   
    73    24    74 1   
    74    24    75 1   
    75    25    76 1   
    76    25    77 1   
    77    26    78 1   
    78    26    79 1   
    79    27    80 1   
    80    29    81 1   
    81    29    82 1   
    82    29    83 1   
    83    30    84 1   
    84    30    85 1   
    85    31    86 1   
    86    31    87 1   
    87    32    88 1   
    88    34    89 1   
    89    34    90 1   
    90    34    91 1   
    91    35    92 1   
    92    35    93 1   
    93    36    94 1   
    94    36    95 1   
    95    37    96 1   
    96    39    97 1   
    97    39    98 1   
    98    39    99 1   
    99    40   100 1   
   100    40   101 1   
   101    41   102 1   
   102    41   103 1   
   103    42   104 1   
   104    44   105 1   
   105    44   106 1   
   106    44   107 1   
   107    45   108 1   
   108    45   109 1   
   109    45   110 1   
@<TRIPOS>SUBSTRUCTURE
     1 0K3         1 TEMP              0 ****  ****    0 ROOT
