@<TRIPOS>MOLECULE
0K5
   56    59     1     0     0
SMALL
bcc


@<TRIPOS>ATOM
      1 C35          0.0060    -0.1200     0.7050 ca         1 0K5      -0.172500
      2 C33          1.6410     0.5350     2.3660 ca         1 0K5      -0.172000
      3 C34          1.3290     0.1150     1.0730 ca         1 0K5      -0.102500
      4 C32          0.6230     0.7190     3.3040 ca         1 0K5      -0.102500
      5 C4          -2.7850    -9.1560    -5.3060 ca         1 0K5       0.348200
      6 C7          -2.7570    -7.9950    -4.4870 ca         1 0K5      -0.141600
      7 C6          -3.0260    -1.9750    -1.7350 cc         1 0K5      -0.214700
      8 C9          -3.3910     0.5880    -0.6200 cd         1 0K5      -0.102000
      9 C13         -3.9510    -5.8500    -3.7860 c3         1 0K5       0.139100
     10 C8          -3.7470    -0.9670    -2.4450 cc         1 0K5       0.235200
     11 C3          -3.9070     0.3180    -1.8770 cc         1 0K5      -0.250600
     12 C31         -0.7050     0.4900     2.9600 ca         1 0K5      -0.172500
     13 C1          -2.5340    -1.6910    -0.4540 cc         1 0K5      -0.045000
     14 C5          -3.8040    -7.0800    -4.6260 ca         1 0K5      -0.098300
     15 C30         -1.0070     0.0690     1.6520 ca         1 0K5       0.130100
     16 C2          -2.7200    -0.4200     0.0890 cd         1 0K5       0.019100
     17 C10         -4.8060    -7.3670    -5.5860 ca         1 0K5       0.020800
     18 C11         -4.7490    -8.5530    -6.3580 ca         1 0K5       0.304600
     19 C14         -2.7790    -3.2610    -2.3210 c1         1 0K5      -0.084800
     20 C15         -3.2640    -3.4980    -3.5740 ce         1 0K5      -0.329300
     21 C12         -3.9790    -2.5040    -4.3690 c          1 0K5       0.637300
     22 N18         -3.7320    -9.4400    -6.2040 nb         1 0K5      -0.636000
     23 N20         -4.3640    -1.3100    -3.6760 n          1 0K5      -0.200900
     24 N19         -2.9990    -4.7800    -4.2130 ny         1 0K5      -0.577800
     25 O22         -3.1490    -6.9360    -0.9750 o          1 0K5      -0.829000
     26 O24         -1.1280    -5.4510    -0.7930 oh         1 0K5      -0.790400
     27 O23         -4.3320    -2.6270    -5.5650 o          1 0K5      -0.666100
     28 O21         -0.7550    -8.0000    -0.7700 o          1 0K5      -0.829000
     29 O25         -5.8010    -6.4290    -5.7340 oh         1 0K5      -0.492100
     30 O26         -4.6570    -0.2590    -4.4520 oh         1 0K5      -0.422100
     31 O29         -2.3570    -0.1430     1.4110 os         1 0K5      -0.251200
     32 O27         -1.5240    -6.7270    -2.8200 os         1 0K5      -0.596200
     33 P28         -1.6800    -6.9180    -1.1420 p5         1 0K5       1.433800
     34 C16         -5.8230    -8.8400    -7.3550 c3         1 0K5      -0.144400
     35 C17         -1.5790    -7.8930    -3.5560 c3         1 0K5       0.230700
     36 H1          -0.2400    -0.4650    -0.3100 ha         1 0K5       0.150000
     37 H2           2.6870     0.7150     2.6490 ha         1 0K5       0.123000
     38 H3           2.1310    -0.0410     0.3370 ha         1 0K5       0.126500
     39 H4           0.8700     1.0430     4.3250 ha         1 0K5       0.126500
     40 H5          -1.9780    -9.9060    -5.2120 h4         1 0K5       0.024100
     41 H6          -3.5140     1.5820    -0.1660 ha         1 0K5       0.136000
     42 H7          -4.9950    -5.4350    -3.8620 hx         1 0K5       0.148200
     43 H8          -3.7330    -6.1000    -2.6860 hx         1 0K5       0.148200
     44 H9          -5.8960    -7.9950    -8.0840 hc         1 0K5       0.046033
     45 H10         -6.8050    -8.9530    -6.8300 hc         1 0K5       0.046033
     46 H11         -5.6230    -9.7790    -7.9260 hc         1 0K5       0.046033
     47 H12         -4.4390     1.1030    -2.4350 ha         1 0K5       0.142000
     48 H13         -1.5160     0.6230     3.6880 ha         1 0K5       0.150000
     49 H14         -2.0010    -2.4830     0.1000 ha         1 0K5       0.180000
     50 H15         -1.6600    -4.7310    -1.1530 ho         1 0K5       0.481000
     51 H16         -0.6510    -7.9530    -4.2040 h1         1 0K5       0.048700
     52 H17         -1.5870    -8.7900    -2.8660 h1         1 0K5       0.048700
     53 H18         -2.0440    -5.0770    -3.9420 hn         1 0K5       0.448800
     54 H21         -6.5100    -6.8170    -6.2660 ho         1 0K5       0.420000
     55 H22         -5.3970    -0.5590    -5.0190 ho         1 0K5       0.431000
     56 H192        -3.0550    -4.6600    -5.2280 hn         1 0K5       0.448800
@<TRIPOS>BOND
     1     1     3 ar  
     2     1    15 ar  
     3     1    36 1   
     4     2     3 ar  
     5     2     4 ar  
     6     2    37 1   
     7     3    38 1   
     8     4    12 ar  
     9     4    39 1   
    10     5     6 ar  
    11     5    22 ar  
    12     5    40 1   
    13     6    14 ar  
    14     6    35 1   
    15     7    10 1   
    16     7    13 1   
    17     7    19 2   
    18     8    11 2   
    19     8    16 1   
    20     8    41 1   
    21     9    14 1   
    22     9    24 1   
    23     9    42 1   
    24     9    43 1   
    25    10    11 1   
    26    10    23 2   
    27    11    47 1   
    28    12    15 ar  
    29    12    48 1   
    30    13    16 2   
    31    13    49 1   
    32    14    17 ar  
    33    15    31 1   
    34    16    31 1   
    35    17    18 ar  
    36    17    29 1   
    37    18    22 ar  
    38    18    34 1   
    39    19    20 2   
    40    20    21 1   
    41    20    24 1   
    42    21    23 1   
    43    21    27 2   
    44    23    30 1   
    45    24    53 1   
    46    24    56 1   
    47    25    33 1   
    48    26    33 1   
    49    26    50 1   
    50    28    33 1   
    51    29    54 1   
    52    30    55 1   
    53    32    33 1   
    54    32    35 1   
    55    34    44 1   
    56    34    45 1   
    57    34    46 1   
    58    35    51 1   
    59    35    52 1   
@<TRIPOS>SUBSTRUCTURE
     1 0K5         1 TEMP              0 ****  ****    0 ROOT
