@<TRIPOS>MOLECULE
0K5
   55    58     1     0     0
SMALL
bcc


@<TRIPOS>ATOM
      1 C35          0.0000     0.0000     0.0000 ca         1 0K5      -0.173000
      2 C33          2.0750     0.0000     1.1970 ca         1 0K5      -0.160000
      3 C34          1.3810     0.0000     0.0000 ca         1 0K5      -0.066500
      4 C32          1.3870    -0.0010     2.3960 ca         1 0K5      -0.066500
      5 C4          -7.3300    -6.9530    -6.2170 ca         1 0K5       0.411200
      6 C7          -7.1250    -5.6640    -5.7610 ca         1 0K5      -0.124600
      7 C6          -3.6680    -1.2280    -1.8230 ca         1 0K5       0.010200
      8 C9          -3.0160     1.1860    -0.6190 ca         1 0K5      -0.136000
      9 C13         -5.6890    -3.6030    -5.6140 c3         1 0K5       0.201100
     10 C8          -3.9990    -0.0130    -2.4500 ca         1 0K5      -0.127400
     11 C3          -3.6660     1.1890    -1.8340 ca         1 0K5      -0.113000
     12 C31          0.0060    -0.0010     2.4010 ca         1 0K5      -0.173000
     13 C1          -3.0140    -1.2190    -0.5860 ca         1 0K5      -0.106000
     14 C5          -5.9500    -5.0080    -6.0920 ca         1 0K5      -0.168300
     15 C30         -0.6920    -0.0010     1.2030 ca         1 0K5       0.161100
     16 C2          -2.6920    -0.0150     0.0080 ca         1 0K5       0.072100
     17 C10         -5.0170    -5.6790    -6.8770 ca         1 0K5      -0.008200
     18 C11         -5.2950    -6.9720    -7.2970 ca         1 0K5       0.274600
     19 C14         -4.0190    -2.4940    -2.4710 cc         1 0K5      -0.266200
     20 C15         -4.6550    -2.4580    -3.6730 cd         1 0K5      -0.009200
     21 C12         -4.9700    -1.1670    -4.2840 c          1 0K5       0.598700
     22 N18         -6.4230    -7.5620    -6.9560 nb         1 0K5      -0.587000
     23 N20         -4.6510    -0.0150    -3.6680 n          1 0K5       0.218500
     24 N19         -5.0050    -3.6470    -4.3190 nu         1 0K5      -0.305000
     25 O22        -11.6690    -6.6340    -3.9550 o          1 0K5      -0.737833
     26 O24        -11.1490    -4.2030    -4.3900 o          1 0K5      -0.737833
     27 O23         -5.5400    -1.1350    -5.3610 o          1 0K5      -0.671500
     28 O21        -10.1530    -5.2440    -2.3170 o          1 0K5      -0.737833
     29 O25         -3.8530    -5.0740    -7.2330 oh         1 0K5      -0.507100
     30 O26         -4.9710     1.2170    -4.2870 oh         1 0K5      -0.446100
     31 O29         -2.0510    -0.0000     1.2060 os         1 0K5      -0.216200
     32 O27         -9.2740    -5.8620    -4.7170 os         1 0K5      -0.473200
     33 P28        -10.5740    -5.4580    -3.8570 p5         1 0K5       0.664900
     34 H1          -0.5420     0.0000    -0.9380 ha         1 0K5       0.124000
     35 H2           3.1580     0.0000     1.1940 ha         1 0K5       0.096000
     36 H3           1.9220     0.0010    -0.9390 ha         1 0K5       0.095000
     37 H4           1.9320    -0.0010     3.3320 ha         1 0K5       0.095000
     38 H5          -8.2450    -7.4710    -5.9600 h4         1 0K5       0.043100
     39 H6          -2.7600     2.1250    -0.1440 ha         1 0K5       0.105000
     40 H7          -5.0670    -3.0870    -6.3340 h1         1 0K5       0.050200
     41 H8          -6.6310    -3.0780    -5.5070 h1         1 0K5       0.050200
     42 H9          -4.6190    -8.7360    -8.2780 hc         1 0K5      -0.003633
     43 H10         -4.2180    -7.2300    -9.1150 hc         1 0K5      -0.003633
     44 H11         -3.3270    -7.6980    -7.6600 hc         1 0K5      -0.003633
     45 H12         -3.9130     2.1290    -2.3130 ha         1 0K5       0.114000
     46 H13         -0.5320    -0.0020     3.3420 ha         1 0K5       0.124000
     47 H14         -2.7610    -2.1520    -0.0970 ha         1 0K5       0.121000
     48 H15         -3.7770    -3.4400    -2.0020 ha         1 0K5       0.130000
     49 H16         -7.7370    -4.7190    -3.9540 h1         1 0K5      -0.002300
     50 H17         -8.5050    -4.0810    -5.4150 h1         1 0K5      -0.002300
     51 H18         -4.7680    -4.5280    -3.9080 hn         1 0K5       0.299800
     52 H21         -3.9210    -4.7580    -8.1190 ho         1 0K5       0.387000
     53 H22         -4.3560     1.3890    -4.9800 ho         1 0K5       0.393000
     54 C16         -4.2940    -7.7100    -8.1470 c3         1 0K5      -0.021400
     55 C17         -8.1670    -4.9800    -4.9140 c3         1 0K5       0.314700
@<TRIPOS>BOND
     1     1     3 ar  
     2     1    15 ar  
     3     1    34 1   
     4     2     3 ar  
     5     2     4 ar  
     6     2    35 1   
     7     3    36 1   
     8     4    12 ar  
     9     4    37 1   
    10     5     6 ar  
    11     5    22 ar  
    12     5    38 1   
    13     6    14 ar  
    14     6    55 1   
    15     7    10 ar  
    16     7    13 ar  
    17     7    19 1   
    18     8    11 ar  
    19     8    16 ar  
    20     8    39 1   
    21     9    14 1   
    22     9    24 1   
    23     9    40 1   
    24     9    41 1   
    25    10    11 ar  
    26    10    23 1   
    27    11    45 1   
    28    12    15 ar  
    29    12    46 1   
    30    13    16 ar  
    31    13    47 1   
    32    14    17 ar  
    33    15    31 1   
    34    16    31 1   
    35    17    18 ar  
    36    17    29 1   
    37    18    22 ar  
    38    18    54 1   
    39    19    20 2   
    40    19    48 1   
    41    20    21 1   
    42    20    24 1   
    43    21    23 1   
    44    21    27 2   
    45    23    30 1   
    46    24    51 1   
    47    25    33 1   
    48    26    33 1   
    49    28    33 1   
    50    29    52 1   
    51    30    53 1   
    52    32    33 1   
    53    32    55 1   
    54    42    54 1   
    55    43    54 1   
    56    44    54 1   
    57    49    55 1   
    58    50    55 1   
@<TRIPOS>SUBSTRUCTURE
     1 0K5         1 TEMP              0 ****  ****    0 ROOT
