@<TRIPOS>MOLECULE
0K6
   64    68     1     0     0
SMALL
bcc


@<TRIPOS>ATOM
      1 O2           1.1100    -1.8500     0.3140 o          1 0K6      -0.447100
      2 C19          2.0860    -1.2040    -0.0470 c          1 0K6       0.596300
      3 N7           3.2950    -1.3510     0.8790 nz         1 0K6      -0.760400
      4 C18          2.2990    -0.4230    -1.2240 cc         1 0K6      -0.317300
      5 N6           3.3060     0.6000    -1.3680 na         1 0K6      -0.156100
      6 C13          3.3580     1.6910    -0.3990 c3         1 0K6       0.033000
      7 C17          4.7860     2.2300    -0.1630 c3         1 0K6      -0.091400
      8 C16          4.6390     3.7010     0.1960 c3         1 0K6      -0.081400
      9 C15          3.1790     4.0900     0.0070 c3         1 0K6      -0.081400
     10 C14          2.4890     2.9320    -0.6960 c3         1 0K6      -0.091400
     11 C20          1.7230    -0.7610    -2.4700 cd         1 0K6       0.102800
     12 C21          2.3560     0.0340    -3.4500 ca         1 0K6      -0.458400
     13 C12          3.3190     0.9020    -2.7650 ca         1 0K6       0.557800
     14 N5           4.1200     1.7810    -3.3990 nb         1 0K6      -0.766000
     15 C22          2.2890     0.1630    -4.8620 ca         1 0K6       0.565200
     16 N8           3.0580     0.9970    -5.5310 nb         1 0K6      -0.743000
     17 C11          3.9800     1.7920    -4.7920 ca         1 0K6       0.939900
     18 N4           4.7500     2.6500    -5.5350 nu         1 0K6      -0.629300
     19 C10          5.7950     3.4300    -5.0430 cc         1 0K6       0.000600
     20 C9           5.8480     4.1730    -3.8370 cd         1 0K6      -0.107300
     21 N3           7.0680     4.8240    -3.7790 na         1 0K6      -0.016100
     22 C8           7.4870     5.6810    -2.7110 c3         1 0K6       0.000600
     23 C23          7.0370     3.6640    -5.7420 cc         1 0K6      -0.159000
     24 C7           7.7960     4.5290    -4.9400 cd         1 0K6      -0.147900
     25 C1           9.1960     4.9820    -5.1550 c          1 0K6       0.693700
     26 O1          10.0080     4.9570    -4.2060 o          1 0K6      -0.608100
     27 N1           9.5910     5.3370    -6.4340 n          1 0K6      -0.446800
     28 C6          10.9750     5.7020    -6.6770 c3         1 0K6       0.047000
     29 C5          11.1520     7.1490    -7.1860 c3         1 0K6       0.144300
     30 N2          10.2610     7.5390    -8.2680 n3         1 0K6      -0.719600
     31 C4          10.7040     7.1040    -9.5740 c3         1 0K6       0.147100
     32 C3           8.8860     7.1870    -7.9670 c3         1 0K6       0.144300
     33 C2           8.6600     5.7410    -7.4630 c3         1 0K6       0.047000
     34 H1           3.4950    -0.4670     1.3530 hn         1 0K6       0.462133
     35 H2           3.1040    -2.0730     1.5810 hn         1 0K6       0.462133
     36 H3           2.9760     1.2740     0.5800 h1         1 0K6       0.020700
     37 H4           5.2750     1.6580     0.6640 hc         1 0K6       0.062700
     38 H5           5.4270     2.1160    -1.0750 hc         1 0K6       0.062700
     39 H6           5.2980     4.3220    -0.4640 hc         1 0K6       0.056450
     40 H7           4.9620     3.8860     1.2520 hc         1 0K6       0.056450
     41 H8           3.0870     5.0270    -0.5970 hc         1 0K6       0.056450
     42 H9           2.6970     4.2850     0.9990 hc         1 0K6       0.056450
     43 H10          2.4220     3.1330    -1.7940 hc         1 0K6       0.062700
     44 H11          1.4480     2.7830    -0.3160 hc         1 0K6       0.062700
     45 H12          0.9630    -1.5290    -2.6300 ha         1 0K6       0.187000
     46 H13          1.5840    -0.4500    -5.4600 h4         1 0K6       0.052100
     47 H14          4.6700     2.6070    -6.5340 hn         1 0K6       0.479800
     48 H15          5.1140     4.2590    -3.0330 h4         1 0K6       0.187000
     49 H16          7.2310     6.7480    -2.9530 h1         1 0K6       0.073033
     50 H17          6.9610     5.3820    -1.7650 h1         1 0K6       0.073033
     51 H18          8.6000     5.5900    -2.5670 h1         1 0K6       0.073033
     52 H19          7.3360     3.2460    -6.7000 ha         1 0K6       0.171000
     53 H20         11.3740     4.9850    -7.4510 h1         1 0K6       0.064700
     54 H21         11.5770     5.5780    -5.7340 h1         1 0K6       0.064700
     55 H22         12.2200     7.2700    -7.5160 h1         1 0K6       0.064200
     56 H23         10.9650     7.8640    -6.3350 h1         1 0K6       0.064200
     57 H25         11.7370     7.5030    -9.7550 h1         1 0K6       0.036700
     58 H26         10.7260     5.9860    -9.6910 h1         1 0K6       0.036700
     59 H27         10.0160     7.5320   -10.3500 h1         1 0K6       0.036700
     60 H28          8.2500     7.3320    -8.8830 h1         1 0K6       0.064200
     61 H29          8.5310     7.9070    -7.1760 h1         1 0K6       0.064200
     62 H30          7.6010     5.6670    -7.0930 h1         1 0K6       0.064700
     63 H31          8.7820     5.0270    -8.3290 h1         1 0K6       0.064700
     64 H73          4.1130    -1.6160     0.3240 hn         1 0K6       0.462133
@<TRIPOS>BOND
     1     1     2 2   
     2     2     3 1   
     3     2     4 1   
     4     3    34 1   
     5     3    35 1   
     6     3    64 1   
     7     4     5 1   
     8     4    11 2   
     9     5     6 1   
    10     5    13 1   
    11     6     7 1   
    12     6    10 1   
    13     6    36 1   
    14     7     8 1   
    15     7    37 1   
    16     7    38 1   
    17     8     9 1   
    18     8    39 1   
    19     8    40 1   
    20     9    10 1   
    21     9    41 1   
    22     9    42 1   
    23    10    43 1   
    24    10    44 1   
    25    11    12 1   
    26    11    45 1   
    27    12    13 ar  
    28    12    15 ar  
    29    13    14 ar  
    30    14    17 ar  
    31    15    16 ar  
    32    15    46 1   
    33    16    17 ar  
    34    17    18 1   
    35    18    19 1   
    36    18    47 1   
    37    19    20 2   
    38    19    23 1   
    39    20    21 1   
    40    20    48 1   
    41    21    22 1   
    42    21    24 1   
    43    22    49 1   
    44    22    50 1   
    45    22    51 1   
    46    23    24 2   
    47    23    52 1   
    48    24    25 1   
    49    25    26 2   
    50    25    27 1   
    51    27    28 1   
    52    27    33 1   
    53    28    29 1   
    54    28    53 1   
    55    28    54 1   
    56    29    30 1   
    57    29    55 1   
    58    29    56 1   
    59    30    31 1   
    60    30    32 1   
    61    31    57 1   
    62    31    58 1   
    63    31    59 1   
    64    32    33 1   
    65    32    60 1   
    66    32    61 1   
    67    33    62 1   
    68    33    63 1   
@<TRIPOS>SUBSTRUCTURE
     1 0K6         1 TEMP              0 ****  ****    0 ROOT
