@<TRIPOS>MOLECULE
0K6
   64    68     1     0     0
SMALL
bcc


@<TRIPOS>ATOM
      1 O2           0.0000     0.0000     0.0000 o          1 0K6      -0.460100
      2 C19          1.2170     0.0000     0.0000 c          1 0K6       0.395300
      3 N7           1.8910     0.0000     1.1670 nz         1 0K6       0.108600
      4 C18          1.9510    -0.0060    -1.2720 cc         1 0K6      -0.447300
      5 N6           3.3300     0.0130    -1.4040 na         1 0K6       0.278900
      6 C13          4.2910     0.0430    -0.2980 c3         1 0K6      -0.085000
      7 C17          4.2930    -1.3100     0.4340 c3         1 0K6      -0.076900
      8 C16          5.7220    -1.8770     0.3080 c3         1 0K6      -0.008900
      9 C15          6.6070    -0.6300     0.0690 c3         1 0K6      -0.008900
     10 C14          5.7190     0.2510    -0.8450 c3         1 0K6      -0.076900
     11 C20          1.3870    -0.0370    -2.5090 cd         1 0K6       0.113800
     12 C21          2.4340    -0.0330    -3.4560 ca         1 0K6      -0.469400
     13 C12          3.6480    -0.0010    -2.7330 ca         1 0K6       0.401800
     14 N5           4.7930     0.0070    -3.4080 nb         1 0K6      -0.743000
     15 C22          2.4890    -0.0540    -4.8550 ca         1 0K6       0.589200
     16 N8           3.6700    -0.0420    -5.4430 nb         1 0K6      -0.679000
     17 C11          4.7930    -0.0110    -4.7310 ca         1 0K6       0.734900
     18 N4           6.0040    -0.0020    -5.3970 nu         1 0K6      -0.151300
     19 C10          6.0380    -0.1360    -6.7970 cc         1 0K6      -0.139400
     20 C9           7.0270     0.3020    -7.6200 cd         1 0K6      -0.324300
     21 N3           6.7000    -0.0130    -8.9020 na         1 0K6       0.545900
     22 C8           7.5050     0.2910   -10.0880 c3         1 0K6      -0.039400
     23 C23          5.0610    -0.7510    -7.5920 cc         1 0K6      -0.152000
     24 C7           5.4860    -0.6620    -8.9020 cd         1 0K6      -0.359900
     25 C1           4.7760    -1.1690   -10.0800 c          1 0K6       0.646700
     26 O1           5.3990    -1.4900   -11.0750 o          1 0K6      -0.663100
     27 N1           3.4330    -1.2790   -10.0610 n          1 0K6      -0.123800
     28 C6           2.6480    -0.7560    -8.9330 c3         1 0K6       0.011000
     29 C5           1.7110    -1.8620    -8.4360 c3         1 0K6       0.141300
     30 N2           0.9170    -2.3690    -9.5630 n3         1 0K6      -0.542600
     31 C4          -0.1140    -3.3080    -9.1010 c3         1 0K6       0.189100
     32 C3           1.7740    -2.9880   -10.5840 c3         1 0K6       0.141300
     33 C2           2.7130    -1.9220   -11.1700 c3         1 0K6       0.011000
     34 H1           1.2430    -0.0610     1.9270 hn         1 0K6       0.264467
     35 H2           2.5120    -0.7850     1.1940 hn         1 0K6       0.264467
     36 H3           4.0420     0.8370     0.3950 h1         1 0K6       0.007700
     37 H4           4.0430    -1.1650     1.4790 hc         1 0K6       0.043700
     38 H5           3.5850    -1.9840    -0.0320 hc         1 0K6       0.043700
     39 H6           6.0130    -2.3760     1.2250 hc         1 0K6       0.032200
     40 H7           5.7870    -2.5530    -0.5360 hc         1 0K6       0.032200
     41 H8           6.8130    -0.1230     1.0040 hc         1 0K6       0.032200
     42 H9           7.5240    -0.9040    -0.4380 hc         1 0K6       0.032200
     43 H10          5.7840    -0.0860    -1.8730 hc         1 0K6       0.043700
     44 H11          6.0070     1.2920    -0.7610 hc         1 0K6       0.043700
     45 H12          0.3290     0.0470    -2.7280 ha         1 0K6       0.146000
     46 H13          1.5790    -0.0800    -5.4440 h4         1 0K6      -0.007900
     47 H14          6.8570     0.0960    -4.8830 hn         1 0K6       0.285800
     48 H15          7.9290     0.8140    -7.3060 h4         1 0K6       0.154000
     49 H16          7.8550    -0.6320   -10.5330 h1         1 0K6       0.039367
     50 H17          8.3550     0.8990    -9.8010 h1         1 0K6       0.039367
     51 H18          6.9000     0.8320   -10.8060 h1         1 0K6       0.039367
     52 H19          4.1410    -1.2060    -7.2440 ha         1 0K6       0.172000
     53 H20          3.3160    -0.4590    -8.1330 h1         1 0K6       0.052200
     54 H21          2.0640     0.0950    -9.2610 h1         1 0K6       0.052200
     55 H22          1.0480    -1.4600    -7.6800 h1         1 0K6       0.013700
     56 H23          2.2980    -2.6700    -8.0170 h1         1 0K6       0.013700
     57 H25         -0.6870    -3.6620    -9.9490 h1         1 0K6       0.002033
     58 H26         -0.7740    -2.8060    -8.4030 h1         1 0K6       0.002033
     59 H27          0.3590    -4.1500    -8.6080 h1         1 0K6       0.002033
     60 H28          1.1550    -3.3980   -11.3730 h1         1 0K6       0.013700
     61 H29          2.3620    -3.7770   -10.1310 h1         1 0K6       0.013700
     62 H30          3.4230    -2.3910   -11.8410 h1         1 0K6       0.052200
     63 H31          2.1320    -1.1800   -11.7050 h1         1 0K6       0.052200
     64 H73          2.4120     0.8500     1.2510 hn         1 0K6       0.264467
@<TRIPOS>BOND
     1     1     2 2   
     2     2     3 1   
     3     2     4 1   
     4     3    34 1   
     5     3    35 1   
     6     3    64 1   
     7     4     5 1   
     8     4    11 2   
     9     5     6 1   
    10     5    13 1   
    11     6     7 1   
    12     6    10 1   
    13     6    36 1   
    14     7     8 1   
    15     7    37 1   
    16     7    38 1   
    17     8     9 1   
    18     8    39 1   
    19     8    40 1   
    20     9    10 1   
    21     9    41 1   
    22     9    42 1   
    23    10    43 1   
    24    10    44 1   
    25    11    12 1   
    26    11    45 1   
    27    12    13 ar  
    28    12    15 ar  
    29    13    14 ar  
    30    14    17 ar  
    31    15    16 ar  
    32    15    46 1   
    33    16    17 ar  
    34    17    18 1   
    35    18    19 1   
    36    18    47 1   
    37    19    20 2   
    38    19    23 1   
    39    20    21 1   
    40    20    48 1   
    41    21    22 1   
    42    21    24 1   
    43    22    49 1   
    44    22    50 1   
    45    22    51 1   
    46    23    24 2   
    47    23    52 1   
    48    24    25 1   
    49    25    26 2   
    50    25    27 1   
    51    27    28 1   
    52    27    33 1   
    53    28    29 1   
    54    28    53 1   
    55    28    54 1   
    56    29    30 1   
    57    29    55 1   
    58    29    56 1   
    59    30    31 1   
    60    30    32 1   
    61    31    57 1   
    62    31    58 1   
    63    31    59 1   
    64    32    33 1   
    65    32    60 1   
    66    32    61 1   
    67    33    62 1   
    68    33    63 1   
@<TRIPOS>SUBSTRUCTURE
     1 0K6         1 TEMP              0 ****  ****    0 ROOT
