@<TRIPOS>MOLECULE
molecule
   23    24     1     0     0
SMALL
bcc


@<TRIPOS>ATOM
      1 CAF          0.0000     0.0000     0.0000 ca         1 0K7      -0.107000
      2 CAD          1.3790     0.0000     0.0000 ca         1 0K7      -0.137000
      3 CAL          2.0740     0.0000     1.1960 ca         1 0K7      -0.099300
      4 CAA          3.5820    -0.0010     1.1890 c3         1 0K7      -0.043800
      5 CAE          1.3920    -0.0000     2.3990 ca         1 0K7      -0.137000
      6 CAG          0.0120    -0.0000     2.4140 ca         1 0K7      -0.107000
      7 CAM         -0.6950     0.0000     1.2110 ca         1 0K7      -0.092500
      8 CAO         -2.1740     0.0060     1.2170 cc         1 0K7       0.468900
      9 NAI         -2.9170     0.0070     2.2820 nd         1 0K7      -0.599000
     10 SAJ         -3.1950     0.0210    -0.2150 ss         1 0K7      -0.329300
     11 CAH         -4.5990     0.0190     0.7630 cc         1 0K7      -0.167400
     12 CAN         -4.2270     0.0120     2.0740 cd         1 0K7       0.352800
     13 CAK         -5.2030     0.0140     3.1750 c          1 0K7       0.797100
     14 OAC         -4.7780     0.0100     4.4540 o          1 0K7      -0.819800
     15 OAB         -6.3950     0.0190     2.9300 o          1 0K7      -0.819800
     16 H1          -0.5430     0.0000    -0.9380 ha         1 0K7       0.151000
     17 H2           1.9190    -0.0000    -0.9390 ha         1 0K7       0.121500
     18 H3           3.9380     0.2460     0.1960 hc         1 0K7       0.035033
     19 H4           3.9430    -0.9840     1.4680 hc         1 0K7       0.035033
     20 H5           3.9470     0.7330     1.8970 hc         1 0K7       0.035033
     21 H6           1.9420    -0.0000     3.3330 ha         1 0K7       0.121500
     22 H7          -0.5210    -0.0000     3.3570 ha         1 0K7       0.151000
     23 H8          -5.6190     0.0250     0.3980 h4         1 0K7       0.190000
@<TRIPOS>BOND
     1     4     3 1
     2     3     2 ar
     3     3     5 ar
     4     2     1 ar
     5     5     6 ar
     6     1     7 ar
     7     6     7 ar
     8     7     8 1
     9     8     9 2
    10     8    10 1
    11     9    12 1
    12    10    11 1
    13    12    11 2
    14    12    13 1
    15    15    13 1
    16    13    14 1
    17     1    16 1
    18     2    17 1
    19     4    18 1
    20     4    19 1
    21     4    20 1
    22     5    21 1
    23     6    22 1
    24    11    23 1
@<TRIPOS>SUBSTRUCTURE
     1 0K7         1 TEMP              0 ****  ****    0 ROOT
