@<TRIPOS>MOLECULE
0K7
   23    24     1     0     0
SMALL
bcc


@<TRIPOS>ATOM
      1 CAF         -0.0260     0.1990     0.0160 ca         1 0K7      -0.114000
      2 CAD          1.3660     0.2170     0.0140 ca         1 0K7      -0.137000
      3 CAL          2.0870     0.0700     1.2040 ca         1 0K7      -0.097300
      4 CAA          3.5670     0.1070     1.1960 c3         1 0K7      -0.044800
      5 CAE          1.3870    -0.0990     2.4040 ca         1 0K7      -0.137000
      6 CAG         -0.0040    -0.1180     2.4130 ca         1 0K7      -0.114000
      7 CAM         -0.7290     0.0300     1.2200 ca         1 0K7      -0.091500
      8 CAO         -2.1810     0.0050     1.2430 cc         1 0K7       0.430900
      9 NAI         -2.9780     0.2340     0.1940 nd         1 0K7      -0.602000
     10 SAJ         -3.0410    -0.3450     2.7140 ss         1 0K7      -0.254300
     11 CAH         -4.5090    -0.1810     1.9070 cc         1 0K7      -0.224400
     12 CAN         -4.3100     0.1280     0.5680 cd         1 0K7       0.340800
     13 CAK         -5.4620     0.3370    -0.4300 c          1 0K7       0.840100
     14 OAC         -5.9470     1.4950    -0.4990 o          1 0K7      -0.805800
     15 OAB         -5.8460    -0.6730    -1.0700 o          1 0K7      -0.805800
     16 H1          -0.5790     0.3170    -0.9290 ha         1 0K7       0.148500
     17 H2           1.9060     0.3490    -0.9360 ha         1 0K7       0.121000
     18 H3           3.9880    -0.4780     2.0500 hc         1 0K7       0.034367
     19 H4           3.9710    -0.3170     0.2440 hc         1 0K7       0.034367
     20 H5           3.9240     1.1640     1.2860 hc         1 0K7       0.034367
     21 H6           1.9400    -0.2170     3.3460 ha         1 0K7       0.121000
     22 H7          -0.5430    -0.2500     3.3650 ha         1 0K7       0.148500
     23 H8          -5.4780    -0.3020     2.3800 h4         1 0K7       0.174000
@<TRIPOS>BOND
     1     1     2 ar  
     2     1     7 ar  
     3     1    16 1   
     4     2     3 ar  
     5     2    17 1   
     6     3     4 1   
     7     3     5 ar  
     8     4    18 1   
     9     4    19 1   
    10     4    20 1   
    11     5     6 ar  
    12     5    21 1   
    13     6     7 ar  
    14     6    22 1   
    15     7     8 1   
    16     8     9 2   
    17     8    10 1   
    18     9    12 1   
    19    10    11 1   
    20    11    12 2   
    21    11    23 1   
    22    12    13 1   
    23    13    14 1   
    24    13    15 1   
@<TRIPOS>SUBSTRUCTURE
     1 0K7         1 TEMP              0 ****  ****    0 ROOT
