@<TRIPOS>MOLECULE
0K9
   86    90     1     0     0
SMALL
bcc


@<TRIPOS>ATOM
      1 C24          0.0000     0.0000     0.0000 cy         1 0K9      -0.054900
      2 C25          1.5390     0.0000     0.0000 cy         1 0K9      -0.036400
      3 C26          1.4630     0.0000     1.5370 cy         1 0K9      -0.054900
      4 C18          0.0800     0.6480     1.3870 cy         1 0K9       0.139800
      5 C19         -0.9580     0.1110     2.3750 c3         1 0K9      -0.061400
      6 O17          0.1050     2.0700     1.3580 os         1 0K9      -0.387100
      7 C16          0.0720     2.7260     2.5480 ca         1 0K9       0.627600
      8 N23          0.3730     4.0200     2.5560 nb         1 0K9      -0.602000
      9 C22          0.3570     4.7350     3.6620 ca         1 0K9       0.431200
     10 C21          0.0230     4.1560     4.8720 ca         1 0K9      -0.249600
     11 C27          0.0030     4.9810     6.1330 c3         1 0K9       0.050900
     12 C28         -1.3660     5.6480     6.2840 c3         1 0K9      -0.069000
     13 C30         -1.6750     6.4680     5.0290 c3         1 0K9       0.001567
     14 C31         -2.4400     4.5740     6.4680 c3         1 0K9       0.001567
     15 C29         -1.3520     6.5700     7.5040 c3         1 0K9       0.001567
     16 C20         -0.2930     2.8060     4.9090 ca         1 0K9      -0.025000
     17 C15         -0.2620     2.0810     3.7260 ca         1 0K9      -0.268600
     18 C14         -0.5880     0.6110     3.7740 c3         1 0K9       0.181800
     19 N4          -1.7190     0.3910     4.6860 n7         1 0K9      -0.575200
     20 C3          -1.2670    -0.2010     5.9510 c3         1 0K9       0.122800
     21 C2          -1.2120    -1.7230     5.8120 c3         1 0K9       0.119100
     22 O5          -0.2860    -2.0730     4.7800 oh         1 0K9      -0.590800
     23 C1          -0.7560    -2.3400     7.1360 c3         1 0K9       0.014700
     24 N6          -1.7520    -2.0620     8.1730 ns         1 0K9      -0.189900
     25 C33         -3.0210    -2.4920     8.0220 c          1 0K9       0.566100
     26 O34         -3.3150    -3.1930     7.0760 o          1 0K9      -0.627100
     27 C35         -4.0740    -2.1040     9.0270 c3         1 0K9       0.105100
     28 C42         -4.3380    -0.6000     8.9330 c3         1 0K9      -0.021100
     29 O36         -5.2810    -2.8180     8.7520 os         1 0K9      -0.373600
     30 C37         -6.0290    -3.1650     9.9200 c3         1 0K9       0.240700
     31 C7          -0.6040    -3.8530     6.9680 c3         1 0K9      -0.018100
     32 C8          -0.0390    -4.4450     8.2320 ca         1 0K9      -0.091300
     33 C9          -0.8880    -4.8740     9.2320 ca         1 0K9      -0.093000
     34 C13          1.3320    -4.5630     8.3870 ca         1 0K9      -0.087000
     35 C12          1.8580    -5.1050     9.5460 ca         1 0K9      -0.104000
     36 C11          1.0190    -5.5340    10.5540 ca         1 0K9      -0.064000
     37 C10         -0.3630    -5.4230    10.4020 ca         1 0K9      -0.131500
     38 C32         -1.2670    -5.8840    11.4770 cc         1 0K9       0.531900
     39 N38         -0.8910    -6.4100    12.6070 nd         1 0K9      -0.566000
     40 C39         -1.8380    -6.7630    13.4460 cd         1 0K9       0.358200
     41 C40         -3.0920    -6.5380    13.0370 cc         1 0K9      -0.112400
     42 S41         -3.0270    -5.8050    11.4360 ss         1 0K9      -0.341300
     43 H1          -0.4240     0.6560    -0.7500 hc         1 0K9       0.035950
     44 H2          -0.4240    -0.9970     0.0210 hc         1 0K9       0.035950
     45 H3           1.9630    -0.9120    -0.4030 hc         1 0K9       0.029700
     46 H4           1.9630     0.9120    -0.4030 hc         1 0K9       0.029700
     47 H5           2.1910     0.6570     1.9980 hc         1 0K9       0.035950
     48 H6           1.4210    -0.9970     1.9590 hc         1 0K9       0.035950
     49 H7          -1.9410     0.4780     2.1050 hc         1 0K9       0.034200
     50 H8          -0.9490    -0.9720     2.3600 hc         1 0K9       0.034200
     51 H9           0.6160     5.7860     3.6250 h4         1 0K9      -0.014900
     52 H10          0.7710     5.7430     6.0780 hc         1 0K9       0.018700
     53 H11          0.1890     4.3410     6.9860 hc         1 0K9       0.018700
     54 H12         -1.8950     5.7990     4.2060 hc         1 0K9       0.006922
     55 H13         -2.5310     7.1050     5.2150 hc         1 0K9       0.006922
     56 H14         -0.8170     7.0800     4.7770 hc         1 0K9       0.006922
     57 H15         -2.6260     4.0830     5.5210 hc         1 0K9       0.006922
     58 H16         -2.1000     3.8440     7.1930 hc         1 0K9       0.006922
     59 H17         -3.3540     5.0350     6.8220 hc         1 0K9       0.006922
     60 H18         -1.1330     5.9910     8.3920 hc         1 0K9       0.006922
     61 H19         -2.3210     7.0420     7.6110 hc         1 0K9       0.006922
     62 H20         -0.5920     7.3310     7.3730 hc         1 0K9       0.006922
     63 H21         -0.5580     2.3270     5.8440 ha         1 0K9       0.120000
     64 H22          0.2780     0.0650     4.1310 h1         1 0K9       0.052700
     65 H23         -2.3840    -0.2180     4.2510 hn         1 0K9       0.266800
     66 H25         -0.2810     0.1760     6.1940 h1         1 0K9       0.031700
     67 H26         -1.9600     0.0650     6.7410 h1         1 0K9       0.031700
     68 H27         -2.1960    -2.0990     5.5580 h1         1 0K9       0.053700
     69 H28         -0.5900    -2.8460     4.3350 ho         1 0K9       0.400000
     70 H29          0.1960    -1.9110     7.4250 h1         1 0K9       0.043700
     71 H30         -1.4880    -1.5630     8.9990 hn         1 0K9       0.177500
     72 H31         -3.7290    -2.3480    10.0250 h1         1 0K9       0.018700
     73 H32         -5.1650    -0.3370     9.5810 hc         1 0K9       0.014700
     74 H33         -4.5830    -0.3390     7.9110 hc         1 0K9       0.014700
     75 H34         -3.4520    -0.0580     9.2420 hc         1 0K9       0.014700
     76 H35         -5.8580    -4.2080    10.1600 h1         1 0K9      -0.008633
     77 H36         -7.0840    -3.0050     9.7340 h1         1 0K9      -0.008633
     78 H37         -5.7100    -2.5470    10.7500 h1         1 0K9      -0.008633
     79 H38          0.0660    -4.0590     6.1420 hc         1 0K9       0.052700
     80 H39         -1.5730    -4.2930     6.7650 hc         1 0K9       0.052700
     81 H40         -1.9600    -4.7850     9.1080 ha         1 0K9       0.125000
     82 H41          1.9950    -4.2280     7.5990 ha         1 0K9       0.109000
     83 H42          2.9320    -5.1930     9.6620 ha         1 0K9       0.107000
     84 H43          1.4340    -5.9590    11.4610 ha         1 0K9       0.125000
     85 H44         -1.6180    -7.2090    14.4080 h4         1 0K9       0.000100
     86 H45         -3.9930    -6.7640    13.5960 h4         1 0K9       0.159000
@<TRIPOS>BOND
     1     1     2 1   
     2     1     4 1   
     3     1    43 1   
     4     1    44 1   
     5     2     3 1   
     6     2    45 1   
     7     2    46 1   
     8     3     4 1   
     9     3    47 1   
    10     3    48 1   
    11     4     5 1   
    12     4     6 1   
    13     5    18 1   
    14     5    49 1   
    15     5    50 1   
    16     6     7 1   
    17     7     8 ar  
    18     7    17 ar  
    19     8     9 ar  
    20     9    10 ar  
    21     9    51 1   
    22    10    11 1   
    23    10    16 ar  
    24    11    12 1   
    25    11    52 1   
    26    11    53 1   
    27    12    13 1   
    28    12    14 1   
    29    12    15 1   
    30    13    54 1   
    31    13    55 1   
    32    13    56 1   
    33    14    57 1   
    34    14    58 1   
    35    14    59 1   
    36    15    60 1   
    37    15    61 1   
    38    15    62 1   
    39    16    17 ar  
    40    16    63 1   
    41    17    18 1   
    42    18    19 1   
    43    18    64 1   
    44    19    20 1   
    45    19    65 1   
    46    20    21 1   
    47    20    66 1   
    48    20    67 1   
    49    21    22 1   
    50    21    23 1   
    51    21    68 1   
    52    22    69 1   
    53    23    24 1   
    54    23    31 1   
    55    23    70 1   
    56    24    25 1   
    57    24    71 1   
    58    25    26 2   
    59    25    27 1   
    60    27    28 1   
    61    27    29 1   
    62    27    72 1   
    63    28    73 1   
    64    28    74 1   
    65    28    75 1   
    66    29    30 1   
    67    30    76 1   
    68    30    77 1   
    69    30    78 1   
    70    31    32 1   
    71    31    79 1   
    72    31    80 1   
    73    32    33 ar  
    74    32    34 ar  
    75    33    37 ar  
    76    33    81 1   
    77    34    35 ar  
    78    34    82 1   
    79    35    36 ar  
    80    35    83 1   
    81    36    37 ar  
    82    36    84 1   
    83    37    38 1   
    84    38    39 2   
    85    38    42 1   
    86    39    40 1   
    87    40    41 2   
    88    40    85 1   
    89    41    42 1   
    90    41    86 1   
@<TRIPOS>SUBSTRUCTURE
     1 0K9         1 TEMP              0 ****  ****    0 ROOT
