@<TRIPOS>MOLECULE
molecule
   86    90     1     0     0
SMALL
bcc


@<TRIPOS>ATOM
      1 C24          0.0000     0.0000     0.0000 cy         1 0K9      -0.100900
      2 C25          1.5390     0.0000     0.0000 cy         1 0K9      -0.096400
      3 C26          1.4630     0.0000     1.5370 cy         1 0K9      -0.100900
      4 C18          0.0800     0.6480     1.3870 cy         1 0K9       0.134800
      5 C19         -0.9580     0.1110     2.3750 c3         1 0K9      -0.111400
      6 O17          0.1050     2.0700     1.3580 os         1 0K9      -0.409100
      7 C16          0.0720     2.7260     2.5480 ca         1 0K9       0.666600
      8 N23          0.3730     4.0200     2.5560 nb         1 0K9      -0.716000
      9 C22          0.3570     4.7350     3.6620 ca         1 0K9       0.457200
     10 C21          0.0230     4.1560     4.8720 ca         1 0K9      -0.248600
     11 C27          0.0030     4.9810     6.1330 c3         1 0K9      -0.015100
     12 C28         -1.3660     5.6480     6.2840 c3         1 0K9      -0.068000
     13 C30         -1.6750     6.4680     5.0290 c3         1 0K9      -0.082767
     14 C31         -2.4400     4.5740     6.4680 c3         1 0K9      -0.082767
     15 C29         -1.3520     6.5700     7.5040 c3         1 0K9      -0.082767
     16 C20         -0.2930     2.8060     4.9090 ca         1 0K9      -0.041000
     17 C15         -0.2620     2.0810     3.7260 ca         1 0K9      -0.258600
     18 C14         -0.5880     0.6110     3.7740 c3         1 0K9       0.217800
     19 N4          -1.7190     0.3910     4.6860 n7         1 0K9      -0.804200
     20 C3          -1.2670    -0.2010     5.9510 c3         1 0K9       0.153800
     21 C2          -1.2120    -1.7230     5.8120 c3         1 0K9       0.083100
     22 O5          -0.2860    -2.0730     4.7800 oh         1 0K9      -0.611800
     23 C1          -0.7560    -2.3400     7.1360 c3         1 0K9       0.108700
     24 N6          -1.7520    -2.0620     8.1730 ns         1 0K9      -0.583900
     25 C33         -3.0210    -2.4920     8.0220 c          1 0K9       0.655100
     26 O34         -3.3150    -3.1930     7.0760 o          1 0K9      -0.590100
     27 C35         -4.0740    -2.1040     9.0270 c3         1 0K9       0.069100
     28 C42         -4.3380    -0.6000     8.9330 c3         1 0K9      -0.112100
     29 O36         -5.2810    -2.8180     8.7520 os         1 0K9      -0.391600
     30 C37         -6.0290    -3.1650     9.9200 c3         1 0K9       0.124700
     31 C7          -0.6040    -3.8530     6.9680 c3         1 0K9      -0.065100
     32 C8          -0.0390    -4.4450     8.2320 ca         1 0K9      -0.082300
     33 C9          -0.8880    -4.8740     9.2320 ca         1 0K9      -0.108000
     34 C13          1.3320    -4.5630     8.3870 ca         1 0K9      -0.115000
     35 C12          1.8580    -5.1050     9.5460 ca         1 0K9      -0.134000
     36 C11          1.0190    -5.5340    10.5540 ca         1 0K9      -0.086000
     37 C10         -0.3630    -5.4230    10.4020 ca         1 0K9      -0.130500
     38 C32         -1.2670    -5.8840    11.4770 cc         1 0K9       0.539900
     39 N38         -0.8910    -6.4100    12.6070 nd         1 0K9      -0.681000
     40 C39         -1.8380    -6.7630    13.4460 cd         1 0K9       0.369200
     41 C40         -3.0920    -6.5380    13.0370 cc         1 0K9      -0.182400
     42 S41         -3.0270    -5.8050    11.4360 ss         1 0K9      -0.254300
     43 H1          -0.4240     0.6560    -0.7500 hc         1 0K9       0.066950
     44 H2          -0.4240    -0.9970     0.0210 hc         1 0K9       0.066950
     45 H3           1.9630    -0.9120    -0.4030 hc         1 0K9       0.060700
     46 H4           1.9630     0.9120    -0.4030 hc         1 0K9       0.060700
     47 H5           2.1910     0.6570     1.9980 hc         1 0K9       0.066950
     48 H6           1.4210    -0.9970     1.9590 hc         1 0K9       0.066950
     49 H7          -1.9410     0.4780     2.1050 hc         1 0K9       0.061700
     50 H8          -0.9490    -0.9720     2.3600 hc         1 0K9       0.061700
     51 H9           0.6160     5.7860     3.6250 h4         1 0K9       0.027100
     52 H10          0.7710     5.7430     6.0780 hc         1 0K9       0.046200
     53 H11          0.1890     4.3410     6.9860 hc         1 0K9       0.046200
     54 H12         -1.8950     5.7990     4.2060 hc         1 0K9       0.035700
     55 H13         -2.5310     7.1050     5.2150 hc         1 0K9       0.035700
     56 H14         -0.8170     7.0800     4.7770 hc         1 0K9       0.035700
     57 H15         -2.6260     4.0830     5.5210 hc         1 0K9       0.035700
     58 H16         -2.1000     3.8440     7.1930 hc         1 0K9       0.035700
     59 H17         -3.3540     5.0350     6.8220 hc         1 0K9       0.035700
     60 H18         -1.1330     5.9910     8.3920 hc         1 0K9       0.035700
     61 H19         -2.3210     7.0420     7.6110 hc         1 0K9       0.035700
     62 H20         -0.5920     7.3310     7.3730 hc         1 0K9       0.035700
     63 H21         -0.5580     2.3270     5.8440 ha         1 0K9       0.143000
     64 H22          0.2780     0.0650     4.1310 h1         1 0K9       0.070700
     65 H23         -2.3840    -0.2180     4.2510 hn         1 0K9       0.362800
     66 H25         -0.2810     0.1760     6.1940 h1         1 0K9       0.061700
     67 H26         -1.9600     0.0650     6.7410 h1         1 0K9       0.061700
     68 H27         -2.1960    -2.0990     5.5580 h1         1 0K9       0.075700
     69 H28         -0.5900    -2.8460     4.3350 ho         1 0K9       0.409000
     70 H29          0.1960    -1.9110     7.4250 h1         1 0K9       0.071700
     71 H30         -1.4880    -1.5630     8.9990 hn         1 0K9       0.319500
     72 H31         -3.7290    -2.3480    10.0250 h1         1 0K9       0.048700
     73 H32         -5.1650    -0.3370     9.5810 hc         1 0K9       0.049033
     74 H33         -4.5830    -0.3390     7.9110 hc         1 0K9       0.049033
     75 H34         -3.4520    -0.0580     9.2420 hc         1 0K9       0.049033
     76 H35         -5.8580    -4.2080    10.1600 h1         1 0K9       0.034033
     77 H36         -7.0840    -3.0050     9.7340 h1         1 0K9       0.034033
     78 H37         -5.7100    -2.5470    10.7500 h1         1 0K9       0.034033
     79 H38          0.0660    -4.0590     6.1420 hc         1 0K9       0.076700
     80 H39         -1.5730    -4.2930     6.7650 hc         1 0K9       0.076700
     81 H40         -1.9600    -4.7850     9.1080 ha         1 0K9       0.141000
     82 H41          1.9950    -4.2280     7.5990 ha         1 0K9       0.134000
     83 H42          2.9320    -5.1930     9.6620 ha         1 0K9       0.136000
     84 H43          1.4340    -5.9590    11.4610 ha         1 0K9       0.155000
     85 H44         -1.6180    -7.2090    14.4080 h4         1 0K9       0.043100
     86 H45         -3.9930    -6.7640    13.5960 h4         1 0K9       0.181000
@<TRIPOS>BOND
     1    13    12 1
     2    15    12 1
     3    12    14 1
     4    12    11 1
     5     9     8 ar
     6     9    10 ar
     7    11    10 1
     8     8     7 ar
     9    10    16 ar
    10     7     6 1
    11     7    17 ar
    12    16    17 ar
    13     6     4 1
    14     3     2 1
    15     3     4 1
    16    17    18 1
    17     2     1 1
    18     4     1 1
    19     4     5 1
    20    18     5 1
    21    18    19 1
    22    19    20 1
    23    22    21 1
    24    26    25 2
    25    20    21 1
    26    21    23 1
    27    23    31 1
    28    23    24 1
    29    25    24 1
    30    25    27 1
    31    34    35 ar
    32    34    32 ar
    33    31    32 1
    34    28    27 1
    35    27    29 1
    36    35    36 ar
    37    32    33 ar
    38    29    30 1
    39    36    37 ar
    40    33    37 ar
    41    37    38 1
    42    38    39 2
    43    38    42 1
    44    39    40 1
    45    42    41 1
    46    40    41 2
    47     1    43 1
    48     1    44 1
    49     2    45 1
    50     2    46 1
    51     3    47 1
    52     3    48 1
    53     5    49 1
    54     5    50 1
    55     9    51 1
    56    11    52 1
    57    11    53 1
    58    13    54 1
    59    13    55 1
    60    13    56 1
    61    14    57 1
    62    14    58 1
    63    14    59 1
    64    15    60 1
    65    15    61 1
    66    15    62 1
    67    16    63 1
    68    18    64 1
    69    19    65 1
    70    20    66 1
    71    20    67 1
    72    21    68 1
    73    22    69 1
    74    23    70 1
    75    24    71 1
    76    27    72 1
    77    28    73 1
    78    28    74 1
    79    28    75 1
    80    30    76 1
    81    30    77 1
    82    30    78 1
    83    31    79 1
    84    31    80 1
    85    33    81 1
    86    34    82 1
    87    35    83 1
    88    36    84 1
    89    40    85 1
    90    41    86 1
@<TRIPOS>SUBSTRUCTURE
     1 0K9         1 TEMP              0 ****  ****    0 ROOT
