@<TRIPOS>MOLECULE
0K9
   88    92     1     0     0
SMALL
bcc


@<TRIPOS>ATOM
      1 C24         -1.6050    -2.1590     1.1290 cy         1 0K9      -0.092900
      2 C25         -1.1610    -1.0580     0.1440 cy         1 0K9      -0.079400
      3 C26         -0.5460    -0.2460     1.3000 cy         1 0K9      -0.092900
      4 C18         -0.9540    -1.3660     2.3060 cy         1 0K9       0.101800
      5 C19          0.1970    -2.0470     3.0220 c3         1 0K9      -0.120400
      6 O17         -2.0220    -0.9570     3.1750 os         1 0K9      -0.467100
      7 C16         -1.5800    -0.2970     4.3190 ca         1 0K9       0.617600
      8 N23         -2.2050     0.8560     4.6580 nb         1 0K9      -0.648000
      9 C22         -1.7950     1.4310     5.8030 ca         1 0K9       0.462200
     10 C21         -0.7760     0.9150     6.6450 ca         1 0K9      -0.163600
     11 C27         -0.3990     1.6280     7.8930 c3         1 0K9      -0.044100
     12 C28          0.7020     2.6830     7.7070 c3         1 0K9      -0.049000
     13 C30          0.2540     3.7520     6.7240 c3         1 0K9      -0.093100
     14 C31          1.9830     2.0310     7.2140 c3         1 0K9      -0.093100
     15 C29          0.9600     3.3290     9.0630 c3         1 0K9      -0.093100
     16 C20         -0.1540    -0.2790     6.2690 ca         1 0K9      -0.043000
     17 C15         -0.5640    -0.9130     5.0900 ca         1 0K9      -0.339600
     18 C14          0.0610    -2.1450     4.5460 c3         1 0K9       0.222800
     19 N4          -0.6990    -3.3930     4.9860 ny         1 0K9      -0.754000
     20 C3          -2.1400    -3.4000     4.6260 c3         1 0K9       0.077800
     21 C2          -2.8790    -4.7050     4.9990 c3         1 0K9       0.119100
     22 O5          -2.2990    -5.1700     6.2020 oh         1 0K9      -0.601800
     23 C1          -4.3910    -4.4420     5.2480 c3         1 0K9       0.081500
     24 N6          -5.0630    -3.7590     4.0980 ny         1 0K9      -0.679800
     25 C33         -5.2940    -2.2630     4.2410 c          1 0K9       0.542100
     26 O34         -4.9250    -1.7360     5.2760 o          1 0K9      -0.420100
     27 C35         -5.9900    -1.5820     3.0580 c3         1 0K9       0.099100
     28 C42         -5.3000    -0.2600     2.7790 c3         1 0K9      -0.130100
     29 O36         -5.8970    -2.4520     1.9370 os         1 0K9      -0.469600
     30 C37         -7.0170    -2.3720     1.0510 c3         1 0K9       0.111700
     31 C7          -5.0770    -5.7820     5.5900 c3         1 0K9      -0.050100
     32 C8          -6.5430    -5.6290     5.7800 ca         1 0K9      -0.159300
     33 C9          -7.4050    -5.7910     4.6890 ca         1 0K9      -0.141000
     34 C13         -7.0710    -5.3440     7.0440 ca         1 0K9      -0.105000
     35 C12         -8.4500    -5.2040     7.2080 ca         1 0K9      -0.102000
     36 C11         -9.3060    -5.3180     6.1140 ca         1 0K9      -0.092000
     37 C10         -8.7840    -5.6020     4.8420 ca         1 0K9      -0.087500
     38 C32         -9.6520    -5.6780     3.6770 cc         1 0K9       0.345900
     39 N38         -9.3080    -5.1660     2.4740 nd         1 0K9      -0.667000
     40 C39        -10.3270    -5.3980     1.5800 cd         1 0K9       0.329200
     41 C40        -11.4260    -6.0800     2.1040 cc         1 0K9      -0.249400
     42 S41        -11.1850    -6.4270     3.7050 ss         1 0K9       0.068700
     43 H1          -1.1460    -3.1520     0.9490 hc         1 0K9       0.072450
     44 H2          -2.7090    -2.2510     1.2270 hc         1 0K9       0.072450
     45 H3          -2.0030    -0.5460    -0.3690 hc         1 0K9       0.079700
     46 H4          -0.4220    -1.4030    -0.6120 hc         1 0K9       0.079700
     47 H5           0.5500    -0.0840     1.2180 hc         1 0K9       0.072450
     48 H6          -1.0600     0.7190     1.5010 hc         1 0K9       0.072450
     49 H7           1.1350    -1.4460     2.8410 hc         1 0K9       0.097200
     50 H8           0.3790    -3.0590     2.5700 hc         1 0K9       0.097200
     51 H9          -2.3030     2.3840     6.0620 h4         1 0K9       0.063100
     52 H10         -0.0470     0.8820     8.6550 hc         1 0K9       0.066200
     53 H11         -1.3080     2.1380     8.3150 hc         1 0K9       0.066200
     54 H12         -0.6830     4.2430     7.0810 hc         1 0K9       0.043033
     55 H13          1.0460     4.5330     6.6220 hc         1 0K9       0.043033
     56 H14          0.0650     3.3070     5.7170 hc         1 0K9       0.043033
     57 H15          1.8170     1.5340     6.2280 hc         1 0K9       0.043033
     58 H16          2.7810     2.8030     7.0920 hc         1 0K9       0.043033
     59 H17          2.3390     1.2670     7.9470 hc         1 0K9       0.043033
     60 H18          1.2890     2.5640     9.8060 hc         1 0K9       0.043033
     61 H19          0.0350     3.8250     9.4430 hc         1 0K9       0.043033
     62 H20          1.7630     4.1010     8.9690 hc         1 0K9       0.043033
     63 H21          0.6570    -0.6980     6.8860 ha         1 0K9       0.159000
     64 H22          1.0950    -2.2920     4.9930 hx         1 0K9       0.118700
     65 H23         -0.2460    -4.2150     4.5720 hn         1 0K9       0.458800
     66 H25         -2.6220    -2.5210     5.1520 hx         1 0K9       0.124200
     67 H26         -2.2190    -3.2350     3.5100 hx         1 0K9       0.124200
     68 H27         -2.7520    -5.4670     4.1790 h1         1 0K9       0.074700
     69 H28         -2.5590    -6.0950     6.3340 ho         1 0K9       0.460000
     70 H29         -4.4870    -3.7640     6.1540 hx         1 0K9       0.143700
     71 H30         -4.5390    -3.9030     3.2270 hn         1 0K9       0.478800
     72 H31         -7.0660    -1.4260     3.3690 h1         1 0K9       0.117700
     73 H32         -4.2340    -0.4180     2.4790 hc         1 0K9       0.086367
     74 H33         -5.3300     0.3920     3.6850 hc         1 0K9       0.086367
     75 H34         -5.8330     0.2520     1.9390 hc         1 0K9       0.086367
     76 H35         -6.7300    -3.0520     0.2080 h1         1 0K9       0.071367
     77 H36         -7.9400    -2.7370     1.5650 h1         1 0K9       0.071367
     78 H37         -7.1460    -1.3230     0.6870 h1         1 0K9       0.071367
     79 H38         -4.6160    -6.1540     6.5460 hc         1 0K9       0.085700
     80 H39         -4.8640    -6.5360     4.7860 hc         1 0K9       0.085700
     81 H40         -7.0130    -6.1070     3.7080 ha         1 0K9       0.144000
     82 H41         -6.4050    -5.2440     7.9150 ha         1 0K9       0.146000
     83 H42         -8.8650    -5.0000     8.2090 ha         1 0K9       0.167000
     84 H43        -10.3930    -5.1860     6.2480 ha         1 0K9       0.165000
     85 H44        -10.2240    -5.0510     0.5450 h4         1 0K9       0.054100
     86 H45        -12.3190    -6.3480     1.5360 h4         1 0K9       0.206000
     87 H421        -0.6290    -3.4730     6.0110 hn         1 0K9       0.458800
     88 H62         -6.0050    -4.1760     3.9550 hn         1 0K9       0.478800
@<TRIPOS>BOND
     1     1     2 1   
     2     1     4 1   
     3     1    43 1   
     4     1    44 1   
     5     2     3 1   
     6     2    45 1   
     7     2    46 1   
     8     3     4 1   
     9     3    47 1   
    10     3    48 1   
    11     4     5 1   
    12     4     6 1   
    13     5    18 1   
    14     5    49 1   
    15     5    50 1   
    16     6     7 1   
    17     7     8 ar  
    18     7    17 ar  
    19     8     9 ar  
    20     9    10 ar  
    21     9    51 1   
    22    10    11 1   
    23    10    16 ar  
    24    11    12 1   
    25    11    52 1   
    26    11    53 1   
    27    12    13 1   
    28    12    14 1   
    29    12    15 1   
    30    13    54 1   
    31    13    55 1   
    32    13    56 1   
    33    14    57 1   
    34    14    58 1   
    35    14    59 1   
    36    15    60 1   
    37    15    61 1   
    38    15    62 1   
    39    16    17 ar  
    40    16    63 1   
    41    17    18 1   
    42    18    19 1   
    43    18    64 1   
    44    19    20 1   
    45    19    65 1   
    46    19    87 1   
    47    20    21 1   
    48    20    66 1   
    49    20    67 1   
    50    21    22 1   
    51    21    23 1   
    52    21    68 1   
    53    22    69 1   
    54    23    24 1   
    55    23    31 1   
    56    23    70 1   
    57    24    25 1   
    58    24    71 1   
    59    24    88 1   
    60    25    26 2   
    61    25    27 1   
    62    27    28 1   
    63    27    29 1   
    64    27    72 1   
    65    28    73 1   
    66    28    74 1   
    67    28    75 1   
    68    29    30 1   
    69    30    76 1   
    70    30    77 1   
    71    30    78 1   
    72    31    32 1   
    73    31    79 1   
    74    31    80 1   
    75    32    33 ar  
    76    32    34 ar  
    77    33    37 ar  
    78    33    81 1   
    79    34    35 ar  
    80    34    82 1   
    81    35    36 ar  
    82    35    83 1   
    83    36    37 ar  
    84    36    84 1   
    85    37    38 1   
    86    38    39 2   
    87    38    42 1   
    88    39    40 1   
    89    40    41 2   
    90    40    85 1   
    91    41    42 1   
    92    41    86 1   
@<TRIPOS>SUBSTRUCTURE
     1 0K9         1 TEMP              0 ****  ****    0 ROOT
