@<TRIPOS>MOLECULE
molecule
   36    37     1     0     0
SMALL
bcc


@<TRIPOS>ATOM
      1 OAW          0.0000     0.0000     0.0000 o          1 0KB      -0.891833
      2 PAV          1.6100     0.0000     0.0000 p5         1 0KB       1.041000
      3 OAY          2.1030     0.0000     1.3960 o          1 0KB      -0.891833
      4 OAX          2.1470    -1.3160    -0.7580 o          1 0KB      -0.891833
      5 CAQ          2.2160     1.4800    -0.8550 ca         1 0KB      -0.138500
      6 CAR          2.4460     2.6430    -0.1470 ca         1 0KB      -0.052000
      7 CAS          2.9070     3.7710    -0.7980 ca         1 0KB      -0.208000
      8 CAT          3.1390     3.7400    -2.1610 ca         1 0KB      -0.144000
      9 CAU          2.9090     2.5800    -2.8750 ca         1 0KB      -0.276000
     10 CAP          2.4530     1.4440    -2.2230 ca         1 0KB       0.172100
     11 OAO          2.2270     0.3010    -2.9220 os         1 0KB      -0.207900
     12 CAA          2.4800     0.3410    -4.3280 c3         1 0KB       0.078400
     13 CAB          2.1760    -1.0060    -4.9320 c          1 0KB       0.629100
     14 OAD          1.7800    -1.9110    -4.2270 o          1 0KB      -0.473100
     15 NAC          2.3420    -1.2060    -6.2540 ns         1 0KB      -0.506100
     16 CAE          2.1530    -2.4810    -6.7990 ca         1 0KB       0.084600
     17 CAF          2.9470    -2.9120    -7.8530 ca         1 0KB      -0.138000
     18 CAG          2.7570    -4.1710    -8.3880 ca         1 0KB      -0.174300
     19 CAK          3.6200    -4.6390    -9.5330 c3         1 0KB       0.671200
     20 FAM          4.7550    -5.2810    -9.0290 f          1 0KB      -0.233967
     21 FAN          2.8930    -5.5330   -10.3270 f          1 0KB      -0.233967
     22 FAL          4.0090    -3.5400   -10.3050 f          1 0KB      -0.233967
     23 CAH          1.7780    -5.0010    -7.8760 ca         1 0KB      -0.123000
     24 CAI          0.9850    -4.5750    -6.8270 ca         1 0KB      -0.118000
     25 CAJ          1.1730    -3.3190    -6.2820 ca         1 0KB      -0.091000
     26 H3           2.2650     2.6710     0.9210 ha         1 0KB       0.148000
     27 H4           3.0870     4.6820    -0.2400 ha         1 0KB       0.082000
     28 H5           3.4980     4.6270    -2.6700 ha         1 0KB       0.075000
     29 H6           3.0930     2.5550    -3.9420 ha         1 0KB       0.080000
     30 H7           3.5210     0.5870    -4.5000 h1         1 0KB       0.027700
     31 H8           1.8500     1.0930    -4.7870 h1         1 0KB       0.027700
     32 H9           2.5780    -0.4370    -6.8500 hn         1 0KB       0.310500
     33 H10          3.7450    -2.2800    -8.2230 ha         1 0KB       0.137000
     34 H11          1.6300    -5.9870    -8.2990 ha         1 0KB       0.128000
     35 H12          0.2200    -5.2290    -6.4260 ha         1 0KB       0.138000
     36 H13          0.5520    -2.9850    -5.4600 ha         1 0KB       0.197000
@<TRIPOS>BOND
     1     3     2 1   
     2    22    19 1   
     3    21    19 1   
     4    19    18 1   
     5    19    20 1   
     6    11    12 1   
     7    11    10 1   
     8    12    13 1   
     9     9    10 ar  
    10     9     8 ar  
    11    10     5 ar  
    12    17    18 ar  
    13    17    16 ar  
    14    14    13 2   
    15    13    15 1   
    16     8     7 ar  
    17     5     2 1   
    18     5     6 ar  
    19     2     1 1   
    20     2     4 1   
    21    18    23 ar  
    22    15    16 1   
    23     7     6 ar  
    24    16    25 ar  
    25    23    24 ar  
    26    25    24 ar  
    27     6    26 1   
    28     7    27 1   
    29     8    28 1   
    30     9    29 1   
    31    12    30 1   
    32    12    31 1   
    33    15    32 1   
    34    17    33 1   
    35    23    34 1   
    36    24    35 1   
    37    25    36 1   
@<TRIPOS>SUBSTRUCTURE
     1 0KB         1 TEMP              0 ****  ****    0 ROOT
