@<TRIPOS>MOLECULE
0KB
   36    37     1     0     0
SMALL
bcc


@<TRIPOS>ATOM
      1 OAW          0.0000     0.0000     0.0000 o          1 0KB      -0.721500
      2 PAV          1.6100     0.0000     0.0000 p5         1 0KB       0.442000
      3 OAY          2.1030     0.0000     1.3960 o          1 0KB      -0.721500
      4 OAX          2.1470    -1.3160    -0.7580 o          1 0KB      -0.721500
      5 CAQ          2.2160     1.4800    -0.8550 ca         1 0KB       0.028500
      6 CAR          2.4460     2.6430    -0.1470 ca         1 0KB      -0.036000
      7 CAS          2.9070     3.7710    -0.7980 ca         1 0KB      -0.205000
      8 CAT          3.1390     3.7400    -2.1610 ca         1 0KB      -0.142000
      9 CAU          2.9090     2.5800    -2.8750 ca         1 0KB      -0.289000
     10 CAP          2.4530     1.4440    -2.2230 ca         1 0KB       0.167100
     11 OAO          2.2270     0.3010    -2.9220 os         1 0KB      -0.170900
     12 CAA          2.4800     0.3410    -4.3280 c3         1 0KB       0.125400
     13 CAB          2.1760    -1.0060    -4.9320 c          1 0KB       0.527100
     14 OAD          1.7800    -1.9110    -4.2270 o          1 0KB      -0.505100
     15 NAC          2.3420    -1.2060    -6.2540 ns         1 0KB      -0.087100
     16 CAE          2.1530    -2.4810    -6.7990 ca         1 0KB      -0.050400
     17 CAF          2.9470    -2.9120    -7.8530 ca         1 0KB      -0.106000
     18 CAG          2.7570    -4.1710    -8.3880 ca         1 0KB      -0.205300
     19 CAK          3.6200    -4.6390    -9.5330 c3         1 0KB       0.637200
     20 FAM          4.7550    -5.2810    -9.0290 f          1 0KB      -0.216967
     21 FAN          2.8930    -5.5330   -10.3270 f          1 0KB      -0.216967
     22 FAL          4.0090    -3.5400   -10.3050 f          1 0KB      -0.216967
     23 CAH          1.7780    -5.0010    -7.8760 ca         1 0KB      -0.092000
     24 CAI          0.9850    -4.5750    -6.8270 ca         1 0KB      -0.087000
     25 CAJ          1.1730    -3.3190    -6.2820 ca         1 0KB      -0.068000
     26 H3           2.2650     2.6710     0.9210 ha         1 0KB       0.112000
     27 H4           3.0870     4.6820    -0.2400 ha         1 0KB       0.060000
     28 H5           3.4980     4.6270    -2.6700 ha         1 0KB       0.055000
     29 H6           3.0930     2.5550    -3.9420 ha         1 0KB       0.072000
     30 H7           3.5210     0.5870    -4.5000 h1         1 0KB      -0.008800
     31 H8           1.8500     1.0930    -4.7870 h1         1 0KB      -0.008800
     32 H9           2.5780    -0.4370    -6.8500 hn         1 0KB       0.160500
     33 H10          3.7450    -2.2800    -8.2230 ha         1 0KB       0.113000
     34 H11          1.6300    -5.9870    -8.2990 ha         1 0KB       0.103000
     35 H12          0.2200    -5.2290    -6.4260 ha         1 0KB       0.107000
     36 H13          0.5520    -2.9850    -5.4600 ha         1 0KB       0.170000
@<TRIPOS>BOND
     1     1     2 1   
     2     2     3 1   
     3     2     4 1   
     4     2     5 1   
     5     5     6 ar  
     6     5    10 ar  
     7     6     7 ar  
     8     6    26 1   
     9     7     8 ar  
    10     7    27 1   
    11     8     9 ar  
    12     8    28 1   
    13     9    10 ar  
    14     9    29 1   
    15    10    11 1   
    16    11    12 1   
    17    12    13 1   
    18    12    30 1   
    19    12    31 1   
    20    13    14 2   
    21    13    15 1   
    22    15    16 1   
    23    15    32 1   
    24    16    17 ar  
    25    16    25 ar  
    26    17    18 ar  
    27    17    33 1   
    28    18    19 1   
    29    18    23 ar  
    30    19    20 1   
    31    19    21 1   
    32    19    22 1   
    33    23    24 ar  
    34    23    34 1   
    35    24    25 ar  
    36    24    35 1   
    37    25    36 1   
@<TRIPOS>SUBSTRUCTURE
     1 0KB         1 TEMP              0 ****  ****    0 ROOT
