@<TRIPOS>MOLECULE
0KB
   36    37     1     0     0
SMALL
bcc


@<TRIPOS>ATOM
      1 OAW         -0.5510    -1.8200     0.3180 o          1 0KB      -0.868000
      2 PAV          0.8390    -1.4250     0.6600 p5         1 0KB       1.379900
      3 OAY          1.4030    -1.7010     2.0020 o          1 0KB      -0.868000
      4 OAX          0.9680     0.1860     0.4290 oh         1 0KB      -0.785400
      5 CAQ          1.9090    -2.0730    -0.5400 ca         1 0KB      -0.301500
      6 CAR          1.3810    -3.2850    -0.9960 ca         1 0KB      -0.068000
      7 CAS          2.0350    -4.1080    -1.9090 ca         1 0KB      -0.213000
      8 CAT          3.2750    -3.7110    -2.3990 ca         1 0KB      -0.105000
      9 CAU          3.8290    -2.5050    -1.9880 ca         1 0KB      -0.250000
     10 CAP          3.1530    -1.6700    -1.0700 ca         1 0KB       0.221100
     11 OAO          3.7020    -0.4480    -0.7080 os         1 0KB      -0.299900
     12 CAA          4.9990    -0.1720    -1.2420 c3         1 0KB       0.075400
     13 CAB          5.4850     1.1970    -0.7190 c2         1 0KB       0.583300
     14 OAD          6.3330     1.1570     0.2140 o          1 0KB      -0.735300
     15 NAC          4.9930     2.2710    -1.3960 ne         1 0KB      -0.552400
     16 CAE          5.4210     3.5450    -1.2060 ca         1 0KB       0.292400
     17 CAF          6.4990     3.9750    -0.3630 ca         1 0KB      -0.215000
     18 CAG          6.8810     5.3050    -0.3140 ca         1 0KB      -0.120300
     19 CAK          8.0300     5.7280     0.5880 c3         1 0KB       0.682200
     20 FAM          8.7970     6.7710     0.1090 f          1 0KB      -0.263633
     21 FAN          8.9710     4.7630     0.8640 f          1 0KB      -0.263633
     22 FAL          7.6630     6.1770     1.8380 f          1 0KB      -0.263633
     23 CAH          6.2310     6.2910    -1.0610 ca         1 0KB      -0.235000
     24 CAI          5.1640     5.9020    -1.8720 ca         1 0KB      -0.108000
     25 CAJ          4.7620     4.5830    -1.9500 ca         1 0KB      -0.197000
     26 H3           0.3830    -3.5830    -0.6160 ha         1 0KB       0.166000
     27 H4           1.5800    -5.0510    -2.2360 ha         1 0KB       0.100000
     28 H5           3.8200    -4.3450    -3.1130 ha         1 0KB       0.093000
     29 H6           4.8080    -2.2260    -2.3990 ha         1 0KB       0.118000
     30 H7           5.7220    -0.9540    -0.8860 h1         1 0KB       0.033200
     31 H8           4.9510    -0.1610    -2.3620 h1         1 0KB       0.033200
     32 H9           1.8370     0.5270     0.6100 ho         1 0KB       0.436000
     33 H10          7.0240     3.2240     0.2510 ha         1 0KB       0.170000
     34 H11          6.5530     7.3370    -1.0070 ha         1 0KB       0.106000
     35 H12          4.6330     6.6670    -2.4580 ha         1 0KB       0.093000
     36 H13          3.9120     4.3100    -2.5920 ha         1 0KB       0.127000
@<TRIPOS>BOND
     1     1     2 1   
     2     2     3 1   
     3     2     4 1   
     4     2     5 1   
     5     4    32 1   
     6     5     6 ar  
     7     5    10 ar  
     8     6     7 ar  
     9     6    26 1   
    10     7     8 ar  
    11     7    27 1   
    12     8     9 ar  
    13     8    28 1   
    14     9    10 ar  
    15     9    29 1   
    16    10    11 1   
    17    11    12 1   
    18    12    13 1   
    19    12    30 1   
    20    12    31 1   
    21    13    14 1   
    22    13    15 2   
    23    15    16 1   
    24    16    17 ar  
    25    16    25 ar  
    26    17    18 ar  
    27    17    33 1   
    28    18    19 1   
    29    18    23 ar  
    30    19    20 1   
    31    19    21 1   
    32    19    22 1   
    33    23    24 ar  
    34    23    34 1   
    35    24    25 ar  
    36    24    35 1   
    37    25    36 1   
@<TRIPOS>SUBSTRUCTURE
     1 0KB         1 TEMP              0 ****  ****    0 ROOT
