@<TRIPOS>MOLECULE
0KC
   37    38     1     0     0
SMALL
bcc


@<TRIPOS>ATOM
      1 CAS          0.2150     0.4970     0.4750 c3         1 0KC      -0.101400
      2 CAR          1.7300     0.4910     0.6010 c3         1 0KC      -0.074900
      3 CAQ          2.0880    -0.1800     1.9210 c3         1 0KC      -0.074900
      4 CAT          0.7970    -0.3540     2.7040 c3         1 0KC      -0.101400
      5 CAP         -0.3430    -0.3270     1.6590 c3         1 0KC       0.101700
      6 NAN         -1.5820     0.1970     2.1850 ns         1 0KC      -0.525900
      7 CAM         -2.7330    -0.5420     2.1830 c          1 0KC       0.647100
      8 OAO         -2.7670    -1.7860     2.0280 o          1 0KC      -0.662100
      9 CAL         -4.0430     0.1810     2.5180 c3         1 0KC       0.057400
     10 OAK         -4.1030     1.3930     1.7640 os         1 0KC      -0.315900
     11 CAB         -4.7930     2.4320     2.3580 ca         1 0KC       0.182100
     12 CAA         -5.8160     2.3000     3.3030 ca         1 0KC      -0.227000
     13 CAF         -6.4520     3.4620     3.7480 ca         1 0KC      -0.089000
     14 CAE         -6.0810     4.7140     3.2600 ca         1 0KC      -0.196000
     15 CAD         -5.0560     4.8180     2.3140 ca         1 0KC      -0.018000
     16 CAC         -4.4060     3.6820     1.8680 ca         1 0KC      -0.342500
     17 PAG         -3.1590     3.7530     0.7600 p5         1 0KC       1.416900
     18 OAI         -3.0000     5.1560     0.3160 o          1 0KC      -0.880500
     19 OAJ         -3.7290     2.8590    -0.4930 oh         1 0KC      -0.789400
     20 OAH         -2.0030     2.9290     1.2210 o          1 0KC      -0.880500
     21 H1          -0.1820     1.5520     0.5010 hc         1 0KC       0.061200
     22 H2          -0.1110     0.0390    -0.4900 hc         1 0KC       0.061200
     23 H3           2.1980    -0.0580    -0.2540 hc         1 0KC       0.029450
     24 H4           2.1230     1.5390     0.5770 hc         1 0KC       0.029450
     25 H5           2.5640    -1.1750     1.7340 hc         1 0KC       0.029450
     26 H6           2.8210     0.4360     2.4980 hc         1 0KC       0.029450
     27 H7           0.7860    -1.3170     3.2680 hc         1 0KC       0.061200
     28 H8           0.6810     0.4780     3.4430 hc         1 0KC       0.061200
     29 H9          -0.5210    -1.3890     1.3140 h1         1 0KC       0.060700
     30 H10         -3.3990     1.9680    -0.4690 ho         1 0KC       0.425000
     31 H11         -4.9060    -0.4670     2.2130 h1         1 0KC       0.059200
     32 H12         -4.0770     0.3780     3.6210 h1         1 0KC       0.059200
     33 H13         -6.1200     1.3160     3.6810 ha         1 0KC       0.123000
     34 H14         -7.2590     3.3800     4.4900 ha         1 0KC       0.109000
     35 H15         -6.5950     5.6160     3.6180 ha         1 0KC       0.116000
     36 H16         -4.7310     5.7870     1.8950 ha         1 0KC       0.173000
     37 HAN2        -1.6730     1.2060     2.1400 hn         1 0KC       0.389500
@<TRIPOS>BOND
     1     1     2 1   
     2     1     5 1   
     3     1    21 1   
     4     1    22 1   
     5     2     3 1   
     6     2    23 1   
     7     2    24 1   
     8     3     4 1   
     9     3    25 1   
    10     3    26 1   
    11     4     5 1   
    12     4    27 1   
    13     4    28 1   
    14     5     6 1   
    15     5    29 1   
    16     6     7 1   
    17     6    37 1   
    18     7     8 2   
    19     7     9 1   
    20     9    10 1   
    21     9    31 1   
    22     9    32 1   
    23    10    11 1   
    24    11    12 ar  
    25    11    16 ar  
    26    12    13 ar  
    27    12    33 1   
    28    13    14 ar  
    29    13    34 1   
    30    14    15 ar  
    31    14    35 1   
    32    15    16 ar  
    33    15    36 1   
    34    16    17 1   
    35    17    18 1   
    36    17    19 1   
    37    17    20 1   
    38    19    30 1   
@<TRIPOS>SUBSTRUCTURE
     1 0KC         1 TEMP              0 ****  ****    0 ROOT
