@<TRIPOS>MOLECULE
molecule
   34    37     1     0     0
SMALL
bcc


@<TRIPOS>ATOM
      1 C1           0.0000     0.0000     0.0000 cc         1 0KD      -0.103000
      2 C2           1.3300     0.0000     0.0000 cd         1 0KD      -0.091100
      3 S3           1.9400     0.0000     1.6470 ss         1 0KD      -0.087800
      4 C4           0.3670    -0.0010     2.3040 cd         1 0KD      -0.103100
      5 C5          -0.5640    -0.0010     1.3290 cc         1 0KD      -0.139900
      6 C6          -2.0150     0.0040     1.5920 cc         1 0KD       0.516400
      7 N7          -2.5900     0.0030     2.8350 na         1 0KD      -0.360000
      8 C8          -3.9590     0.0080     2.6510 ca         1 0KD       0.409800
      9 C9          -4.1620     0.0120     1.2570 ca         1 0KD       0.035100
     10 N10         -2.9520     0.0140     0.6710 nd         1 0KD      -0.564100
     11 N11         -4.9890     0.0100     3.4770 nb         1 0KD      -0.681000
     12 C12         -6.2330     0.0150     3.0420 ca         1 0KD       0.433200
     13 C13         -6.5280     0.0180     1.6910 ca         1 0KD      -0.246300
     14 C14         -5.4830     0.0170     0.7620 ca         1 0KD      -0.062600
     15 C15         -5.7540     0.0210    -0.6890 c          1 0KD       0.670700
     16 N16         -7.0250     0.0250    -1.1370 ns         1 0KD      -0.477100
     17 C17         -7.2840     0.1280    -2.5070 ca         1 0KD      -0.067700
     18 C18         -6.4350    -0.4730    -3.4340 ca         1 0KD      -0.094000
     19 C19         -6.7330    -0.3440    -4.7800 ca         1 0KD      -0.237300
     20 C20         -7.8540     0.3710    -5.1580 ca         1 0KD       0.398200
     21 N21         -8.6380     0.9280    -4.2570 nb         1 0KD      -0.675000
     22 C22         -8.3940     0.8250    -2.9650 ca         1 0KD       0.387200
     23 O23         -4.8320     0.0190    -1.4800 o          1 0KD      -0.554100
     24 H1          -0.5980     0.0000    -0.9030 ha         1 0KD       0.183000
     25 H2           1.9480     0.0010    -0.8890 h4         1 0KD       0.179000
     26 H3           0.1440    -0.0010     3.3650 h4         1 0KD       0.167000
     27 H4          -2.1140    -0.1410     3.7040 hn         1 0KD       0.314700
     28 H6          -7.0440     0.0160     3.7600 h4         1 0KD       0.031100
     29 H7          -7.5580     0.0230     1.3560 ha         1 0KD       0.137000
     30 H8          -7.7840    -0.0700    -0.4900 hn         1 0KD       0.325500
     31 H9          -5.5630    -1.0270    -3.1090 ha         1 0KD       0.174000
     32 H10         -6.0940    -0.7970    -5.5280 ha         1 0KD       0.141000
     33 H11         -8.0900     0.4770    -6.2100 h4         1 0KD       0.023100
     34 H12         -9.0620     1.2960    -2.2540 h4         1 0KD       0.019100
@<TRIPOS>BOND
     1     2     3 1
     2     2     1 2
     3     3     4 1
     4     1     5 1
     5     4     5 2
     6     5     6 1
     7     6     7 1
     8     6    10 2
     9     7     8 1
    10    10     9 1
    11     8    11 ar
    12     8     9 ar
    13    11    12 ar
    14     9    14 ar
    15    12    13 ar
    16    14    13 ar
    17    14    15 1
    18    18    19 ar
    19    18    17 ar
    20    16    15 1
    21    16    17 1
    22    15    23 2
    23    19    20 ar
    24    17    22 ar
    25    20    21 ar
    26    22    21 ar
    27     1    24 1
    28     2    25 1
    29     4    26 1
    30     7    27 1
    31    12    28 1
    32    13    29 1
    33    16    30 1
    34    18    31 1
    35    19    32 1
    36    20    33 1
    37    22    34 1
@<TRIPOS>SUBSTRUCTURE
     1 0KD         1 TEMP              0 ****  ****    0 ROOT
