@<TRIPOS>MOLECULE
0KD
   34    37     1     0     0
SMALL
bcc


@<TRIPOS>ATOM
      1 C1           0.0250     0.1700     0.0350 cc         1 0KD      -0.137000
      2 C2           1.3940     0.0260    -0.0070 cd         1 0KD      -0.181100
      3 S3           2.0070    -0.4980     1.4550 ss         1 0KD       0.088200
      4 C4           0.5240    -0.5560     2.1940 cd         1 0KD      -0.130100
      5 C5          -0.4920    -0.1730     1.3300 cc         1 0KD      -0.169900
      6 C6          -1.8940    -0.1250     1.6940 cc         1 0KD       0.528400
      7 N7          -2.9140    -0.0230     0.7200 na         1 0KD      -0.371000
      8 C8          -4.1330    -0.0190     1.4160 ca         1 0KD       0.394800
      9 C9          -3.7720    -0.1110     2.8360 ca         1 0KD      -0.010900
     10 N10         -2.3790    -0.1730     2.9620 nd         1 0KD      -0.585100
     11 N11         -5.4040     0.0550     0.9350 nb         1 0KD      -0.639000
     12 C12         -6.3540     0.0260     1.8780 ca         1 0KD       0.401200
     13 C13         -6.1230    -0.0740     3.2730 ca         1 0KD      -0.205300
     14 C14         -4.8230    -0.1400     3.7680 ca         1 0KD      -0.062600
     15 C15         -4.6190    -0.2810     5.2410 c          1 0KD       0.685700
     16 N16         -3.5420     0.3980     5.7880 ns         1 0KD      -0.446100
     17 C17         -3.1190     0.3570     7.1220 ca         1 0KD      -0.044700
     18 C18         -1.8850     0.9580     7.4730 ca         1 0KD      -0.150000
     19 C19         -1.4750     0.9440     8.8020 ca         1 0KD      -0.221300
     20 C20         -2.2970     0.3300     9.7610 ca         1 0KD       0.362200
     21 N21         -3.4730    -0.2510     9.4550 nb         1 0KD      -0.645000
     22 C22         -3.8740    -0.2400     8.1760 ca         1 0KD       0.374200
     23 O23         -5.4220    -0.9470     5.9220 o          1 0KD      -0.585100
     24 H1          -0.5930     0.5100    -0.7980 ha         1 0KD       0.154000
     25 H2           2.0210     0.2260    -0.8750 h4         1 0KD       0.179000
     26 H3           0.3740    -0.8600     3.2320 h4         1 0KD       0.195000
     27 H4          -2.7980    -0.0100    -0.2590 hn         1 0KD       0.321700
     28 H6          -7.3920     0.0810     1.4970 h4         1 0KD       0.033100
     29 H7          -6.9760    -0.1170     3.9680 ha         1 0KD       0.169000
     30 H8          -2.9210     0.8640     5.1610 hn         1 0KD       0.337500
     31 H9          -1.2510     1.4330     6.7090 ha         1 0KD       0.137000
     32 H10         -0.5230     1.4040     9.0980 ha         1 0KD       0.141000
     33 H11         -2.0060     0.2990    10.8260 h4         1 0KD       0.022100
     34 H12         -4.8460    -0.7340     7.9770 h4         1 0KD       0.062100
@<TRIPOS>BOND
     1     1     2 2   
     2     1     5 1   
     3     1    24 1   
     4     2     3 1   
     5     2    25 1   
     6     3     4 1   
     7     4     5 2   
     8     4    26 1   
     9     5     6 1   
    10     6     7 1   
    11     6    10 2   
    12     7     8 1   
    13     7    27 1   
    14     8     9 ar  
    15     8    11 ar  
    16     9    10 1   
    17     9    14 ar  
    18    11    12 ar  
    19    12    13 ar  
    20    12    28 1   
    21    13    14 ar  
    22    13    29 1   
    23    14    15 1   
    24    15    16 1   
    25    15    23 2   
    26    16    17 1   
    27    16    30 1   
    28    17    18 ar  
    29    17    22 ar  
    30    18    19 ar  
    31    18    31 1   
    32    19    20 ar  
    33    19    32 1   
    34    20    21 ar  
    35    20    33 1   
    36    21    22 ar  
    37    22    34 1   
@<TRIPOS>SUBSTRUCTURE
     1 0KD         1 TEMP              0 ****  ****    0 ROOT
