@<TRIPOS>MOLECULE
0KD
   34    37     1     0     0
SMALL
bcc


@<TRIPOS>ATOM
      1 C1           0.0000     0.0000     0.0000 cc         1 0KD      -0.077000
      2 C2           1.3300     0.0000     0.0000 cd         1 0KD      -0.006100
      3 S3           1.9400     0.0000     1.6470 ss         1 0KD      -0.230800
      4 C4           0.3670    -0.0010     2.3040 cd         1 0KD      -0.038100
      5 C5          -0.5640    -0.0010     1.3290 cc         1 0KD      -0.124900
      6 C6          -2.0150     0.0040     1.5920 cc         1 0KD       0.291400
      7 N7          -2.5900     0.0030     2.8350 na         1 0KD       0.173000
      8 C8          -3.9590     0.0080     2.6510 ca         1 0KD       0.171800
      9 C9          -4.1620     0.0120     1.2570 ca         1 0KD       0.010100
     10 N10         -2.9520     0.0140     0.6710 nd         1 0KD      -0.466100
     11 N11         -4.9890     0.0100     3.4770 nb         1 0KD      -0.536000
     12 C12         -6.2330     0.0150     3.0420 ca         1 0KD       0.397200
     13 C13         -6.5280     0.0180     1.6910 ca         1 0KD      -0.215300
     14 C14         -5.4830     0.0170     0.7620 ca         1 0KD      -0.072600
     15 C15         -5.7540     0.0210    -0.6890 c          1 0KD       0.577700
     16 N16         -7.0250     0.0250    -1.1370 ns         1 0KD      -0.036100
     17 C17         -7.2840     0.1280    -2.5070 ca         1 0KD      -0.208700
     18 C18         -6.4350    -0.4730    -3.4340 ca         1 0KD      -0.073000
     19 C19         -6.7330    -0.3440    -4.7800 ca         1 0KD      -0.202300
     20 C20         -7.8540     0.3710    -5.1580 ca         1 0KD       0.386200
     21 N21         -8.6380     0.9280    -4.2570 nb         1 0KD      -0.567000
     22 C22         -8.3940     0.8250    -2.9650 ca         1 0KD       0.373200
     23 O23         -4.8320     0.0190    -1.4800 o          1 0KD      -0.597100
     24 H1          -0.5980     0.0000    -0.9030 ha         1 0KD       0.149000
     25 H2           1.9480     0.0010    -0.8890 h4         1 0KD       0.153000
     26 H3           0.1440    -0.0010     3.3650 h4         1 0KD       0.145000
     27 H4          -2.1140    -0.1410     3.7040 hn         1 0KD       0.135700
     28 H6          -7.0440     0.0160     3.7600 h4         1 0KD      -0.015900
     29 H7          -7.5580     0.0230     1.3560 ha         1 0KD       0.113000
     30 H8          -7.7840    -0.0700    -0.4900 hn         1 0KD       0.172500
     31 H9          -5.5630    -1.0270    -3.1090 ha         1 0KD       0.151000
     32 H10         -6.0940    -0.7970    -5.5280 ha         1 0KD       0.114000
     33 H11         -8.0900     0.4770    -6.2100 h4         1 0KD      -0.020900
     34 H12         -9.0620     1.2960    -2.2540 h4         1 0KD      -0.021900
@<TRIPOS>BOND
     1     1     2 2   
     2     1     5 1   
     3     1    24 1   
     4     2     3 1   
     5     2    25 1   
     6     3     4 1   
     7     4     5 2   
     8     4    26 1   
     9     5     6 1   
    10     6     7 1   
    11     6    10 2   
    12     7     8 1   
    13     7    27 1   
    14     8     9 ar  
    15     8    11 ar  
    16     9    10 1   
    17     9    14 ar  
    18    11    12 ar  
    19    12    13 ar  
    20    12    28 1   
    21    13    14 ar  
    22    13    29 1   
    23    14    15 1   
    24    15    16 1   
    25    15    23 2   
    26    16    17 1   
    27    16    30 1   
    28    17    18 ar  
    29    17    22 ar  
    30    18    19 ar  
    31    18    31 1   
    32    19    20 ar  
    33    19    32 1   
    34    20    21 ar  
    35    20    33 1   
    36    21    22 ar  
    37    22    34 1   
@<TRIPOS>SUBSTRUCTURE
     1 0KD         1 TEMP              0 ****  ****    0 ROOT
