@<TRIPOS>MOLECULE
0KE
   49    51     1     0     0
SMALL
bcc


@<TRIPOS>ATOM
      1 C14         -0.1420    -1.6550     1.0920 cc         1 0KE      -0.012000
      2 C13          1.2260    -1.7650     0.8850 cd         1 0KE      -0.252000
      3 C15          1.5630     0.3850     2.0030 cc         1 0KE      -0.281600
      4 C21         -8.5540     1.1950     1.2030 ca         1 0KE       0.391200
      5 C1          -0.7000    -0.5480     1.7460 cc         1 0KE      -0.250700
      6 C22         -7.1630     1.3650     0.9860 ca         1 0KE      -0.140600
      7 C17         -6.2880     0.4940     1.6420 ca         1 0KE      -0.103300
      8 C16          0.1750     0.4760     2.2260 cc         1 0KE       0.268200
      9 C12          2.0680    -0.7370     1.3380 cd         1 0KE       0.147100
     10 C18         -6.8470    -0.4640     2.5150 ca         1 0KE      -0.021200
     11 C19         -8.2500    -0.5540     2.6810 ca         1 0KE       0.342600
     12 C2          -2.1200    -0.4390     1.8860 c1         1 0KE      -0.084800
     13 C3          -2.6130     0.6820     2.4900 ce         1 0KE      -0.348300
     14 C4          -1.7840     1.7720     2.9960 c          1 0KE       0.640300
     15 C24         -8.8020    -1.6000     3.5910 c3         1 0KE      -0.147400
     16 C10          3.9770    -1.7750     0.3660 c3         1 0KE       0.117700
     17 C11         -4.8130     0.5150     1.3960 c3         1 0KE       0.159100
     18 N20         -9.0910     0.2760     2.0140 nb         1 0KE      -0.645000
     19 N5          -0.3730     1.5280     3.0040 n          1 0KE      -0.198900
     20 N8          -4.0540     0.8580     2.6380 ny         1 0KE      -0.573800
     21 O29         -6.9900     0.5140    -2.6030 oh         1 0KE      -0.777400
     22 O30         -5.4830     2.2540    -3.4410 o          1 0KE      -0.824500
     23 O7          -2.2040     2.8320     3.5170 o          1 0KE      -0.672100
     24 O28         -7.8250     2.9130    -2.3800 o          1 0KE      -0.824500
     25 O23         -5.9800    -1.2510     3.2460 oh         1 0KE      -0.526100
     26 O6           0.4060     2.6130     3.0870 oh         1 0KE      -0.415100
     27 O9           3.4450    -0.7420     1.1850 os         1 0KE      -0.332900
     28 O26         -5.9340     2.0280    -0.9690 os         1 0KE      -0.569200
     29 P27         -6.6040     2.0930    -2.5000 p5         1 0KE       1.422800
     30 C25         -6.7050     2.4830     0.0880 c3         1 0KE       0.213700
     31 H1          -0.8250    -2.4410     0.7310 ha         1 0KE       0.150000
     32 H2           1.6340    -2.6410     0.3660 ha         1 0KE       0.129000
     33 H3           2.2470     1.1780     2.3370 ha         1 0KE       0.158000
     34 H4          -9.2750     1.8400     0.6620 h4         1 0KE       0.048100
     35 H5          -6.3010     0.0060    -3.0170 ho         1 0KE       0.431000
     36 H6          -9.8990    -1.4740     3.7590 hc         1 0KE       0.048033
     37 H7          -8.6280    -2.6120     3.1450 hc         1 0KE       0.048033
     38 H8          -8.2800    -1.5490     4.5790 hc         1 0KE       0.048033
     39 H9           5.0680    -1.5310     0.3100 h1         1 0KE       0.039033
     40 H10          3.8230    -2.7730     0.8450 h1         1 0KE       0.039033
     41 H11          3.5160    -1.7560    -0.6510 h1         1 0KE       0.039033
     42 H12         -4.4570    -0.5070     1.0640 hx         1 0KE       0.145200
     43 H13         -4.5430     1.2580     0.5860 hx         1 0KE       0.145200
     44 H14         -7.6000     3.0580    -0.2920 h1         1 0KE       0.052700
     45 H15         -6.0640     3.1740     0.7150 h1         1 0KE       0.052700
     46 H16         -4.2440     1.8310     2.9010 hn         1 0KE       0.433800
     47 H19         -6.3490    -2.1470     3.2700 ho         1 0KE       0.429000
     48 H20          0.1100     3.0830     3.8940 ho         1 0KE       0.431000
     49 H82         -4.3680     0.2400     3.3940 hn         1 0KE       0.433800
@<TRIPOS>BOND
     1     1     2 2   
     2     1     5 1   
     3     1    31 1   
     4     2     9 1   
     5     2    32 1   
     6     3     8 1   
     7     3     9 2   
     8     3    33 1   
     9     4     6 ar  
    10     4    18 ar  
    11     4    34 1   
    12     5     8 1   
    13     5    12 2   
    14     6     7 ar  
    15     6    30 1   
    16     7    10 ar  
    17     7    17 1   
    18     8    19 2   
    19     9    27 1   
    20    10    11 ar  
    21    10    25 1   
    22    11    15 1   
    23    11    18 ar  
    24    12    13 2   
    25    13    14 1   
    26    13    20 1   
    27    14    19 1   
    28    14    23 2   
    29    15    36 1   
    30    15    37 1   
    31    15    38 1   
    32    16    27 1   
    33    16    39 1   
    34    16    40 1   
    35    16    41 1   
    36    17    20 1   
    37    17    42 1   
    38    17    43 1   
    39    19    26 1   
    40    20    46 1   
    41    20    49 1   
    42    21    29 1   
    43    21    35 1   
    44    22    29 1   
    45    24    29 1   
    46    25    47 1   
    47    26    48 1   
    48    28    29 1   
    49    28    30 1   
    50    30    44 1   
    51    30    45 1   
@<TRIPOS>SUBSTRUCTURE
     1 0KE         1 TEMP              0 ****  ****    0 ROOT
