@<TRIPOS>MOLECULE
molecule
   48    50     1     0     0
SMALL
bcc


@<TRIPOS>ATOM
      1 C14          0.0000     0.0000     0.0000 ca         1 0KE      -0.068000
      2 C13          1.3630     0.0000     0.0000 ca         1 0KE      -0.238000
      3 C15          1.4000     0.0130     2.4120 ca         1 0KE      -0.185000
      4 C21         -8.4420    -1.1340     3.2740 ca         1 0KE       0.460200
      5 C1          -0.6990     0.0070     1.2150 ca         1 0KE      -0.068800
      6 C22         -7.0750    -1.1720     3.4730 ca         1 0KE      -0.111600
      7 C17         -6.3720     0.0190     3.5690 ca         1 0KE      -0.133300
      8 C16          0.0090     0.0120     2.4310 ca         1 0KE       0.083600
      9 C12          2.0700     0.0000     1.2010 ca         1 0KE       0.134100
     10 C18         -7.0770     1.2120     3.4610 ca         1 0KE      -0.022200
     11 C19         -8.4500     1.1690     3.2610 ca         1 0KE       0.325600
     12 C2          -2.1610     0.0060     1.2330 cc         1 0KE      -0.238200
     13 C3          -2.8000     0.0120     2.4350 cd         1 0KE       0.138800
     14 C4          -2.0160     0.0180     3.6690 c          1 0KE       0.700700
     15 C24         -9.2270     2.4550     3.1420 c3         1 0KE      -0.131400
     16 C10          4.0610    -0.0010    -0.0970 c3         1 0KE       0.133700
     17 C11         -4.8810     0.0200     3.7870 c3         1 0KE       0.286100
     18 N20         -9.0800     0.0150     3.1700 nb         1 0KE      -0.714000
     19 N5          -0.6720     0.0180     3.6310 n          1 0KE      -0.212500
     20 N8          -4.1980     0.0130     2.4890 nu         1 0KE      -0.773000
     21 O29         -8.1640    -6.0300     3.2070 o          1 0KE      -0.901500
     22 O30         -6.3240    -5.4530     4.9940 o          1 0KE      -0.901500
     23 O7          -2.5870     0.0240     4.7450 o          1 0KE      -0.606500
     24 O28         -5.8220    -5.3830     2.5220 o          1 0KE      -0.901500
     25 O23         -6.4310     2.4050     3.5490 oh         1 0KE      -0.522100
     26 O6           0.0580     0.0240     4.8450 oh         1 0KE      -0.369100
     27 O9           3.4290    -0.0010     1.1840 os         1 0KE      -0.334900
     28 O26         -7.2980    -3.5600     3.4530 os         1 0KE      -0.572200
     29 P27         -6.8790    -5.1120     3.5220 p5         1 0KE       1.165900
     30 H1          -0.5420     0.0000    -0.9380 ha         1 0KE       0.135000
     31 H2           1.9010    -0.0100    -0.9400 ha         1 0KE       0.123000
     32 H3           1.9570     0.0130     3.3410 ha         1 0KE       0.152000
     33 H4          -9.2770    -1.8190     3.1870 h4         1 0KE       0.067100
     34 H5          -2.7250     0.0020     0.3080 ha         1 0KE       0.144000
     35 H6         -10.2880     2.2350     3.1250 hc         1 0KE       0.034367
     36 H7          -9.0040     3.0920     3.9900 hc         1 0KE       0.034367
     37 H8          -8.9480     2.9620     2.2260 hc         1 0KE       0.034367
     38 H9           5.1360     0.0000     0.0310 h1         1 0KE       0.034367
     39 H10          3.7640    -0.8870    -0.6460 h1         1 0KE       0.034367
     40 H11          3.7610     0.8820    -0.6480 h1         1 0KE       0.034367
     41 H12         -4.5980    -0.8620     4.3490 h1         1 0KE       0.077200
     42 H13         -4.5980     0.9070     4.3400 h1         1 0KE       0.077200
     43 H14         -5.8690    -2.5570     4.5490 h1         1 0KE       0.040200
     44 H15         -5.6150    -2.5660     2.7990 h1         1 0KE       0.040200
     45 H16         -4.7320     0.0300     1.6430 hn         1 0KE       0.452800
     46 H19         -6.5330     2.8790     2.7410 ho         1 0KE       0.400000
     47 H20          0.0860    -0.8500     5.1990 ho         1 0KE       0.415000
     48 C25         -6.3570    -2.4920     3.5840 c3         1 0KE       0.246700
@<TRIPOS>BOND
     1    15    11 1
     2    18    11 ar
     3    18     4 ar
     4    11    10 ar
     5     4     6 ar
     6    24    29 1
     7    10    25 1
     8    10     7 ar
     9     6     7 ar
    10     6    48 1
    11     7    17 1
    12    28    29 1
    13    28    48 1
    14    29    21 1
    15    29    22 1
    16    17    20 1
    17    20    13 1
    18    23    14 2
    19    13    14 1
    20    13    12 2
    21    14    19 1
    22    12     5 1
    23    19    26 1
    24    19     8 1
    25     5     8 ar
    26     5     1 ar
    27     8     3 ar
    28     1     2 ar
    29     3     9 ar
    30     2     9 ar
    31     9    27 1
    32    27    16 1
    33     1    30 1
    34     2    31 1
    35     3    32 1
    36     4    33 1
    37    12    34 1
    38    15    35 1
    39    15    36 1
    40    15    37 1
    41    16    38 1
    42    16    39 1
    43    16    40 1
    44    17    41 1
    45    17    42 1
    46    48    43 1
    47    48    44 1
    48    20    45 1
    49    25    46 1
    50    26    47 1
@<TRIPOS>SUBSTRUCTURE
     1 0KE         1 TEMP              0 ****  ****    0 ROOT
