@<TRIPOS>MOLECULE
0KE
   48    50     1     0     0
SMALL
bcc


@<TRIPOS>ATOM
      1 C14          0.0000     0.0000     0.0000 ca         1 0KE      -0.046000
      2 C13          1.3630     0.0000     0.0000 ca         1 0KE      -0.224000
      3 C15          1.4000     0.0130     2.4120 ca         1 0KE      -0.166000
      4 C21         -8.4420    -1.1340     3.2740 ca         1 0KE       0.447200
      5 C1          -0.6990     0.0070     1.2150 ca         1 0KE      -0.041800
      6 C22         -7.0750    -1.1720     3.4730 ca         1 0KE      -0.100600
      7 C17         -6.3720     0.0190     3.5690 ca         1 0KE      -0.160300
      8 C16          0.0090     0.0120     2.4310 ca         1 0KE      -0.087400
      9 C12          2.0700     0.0000     1.2010 ca         1 0KE       0.134100
     10 C18         -7.0770     1.2120     3.4610 ca         1 0KE      -0.002200
     11 C19         -8.4500     1.1690     3.2610 ca         1 0KE       0.263600
     12 C2          -2.1610     0.0060     1.2330 cc         1 0KE      -0.252200
     13 C3          -2.8000     0.0120     2.4350 cd         1 0KE      -0.013200
     14 C4          -2.0160     0.0180     3.6690 c          1 0KE       0.600700
     15 C24         -9.2270     2.4550     3.1420 c3         1 0KE      -0.023400
     16 C10          4.0610    -0.0010    -0.0970 c3         1 0KE       0.245700
     17 C11         -4.8810     0.0200     3.7870 c3         1 0KE       0.201100
     18 N20         -9.0800     0.0150     3.1700 nb         1 0KE      -0.626000
     19 N5          -0.6720     0.0180     3.6310 n          1 0KE       0.218500
     20 N8          -4.1980     0.0130     2.4890 nu         1 0KE      -0.324000
     21 O29         -8.1640    -6.0300     3.2070 o          1 0KE      -0.747833
     22 O30         -6.3240    -5.4530     4.9940 o          1 0KE      -0.747833
     23 O7          -2.5870     0.0240     4.7450 o          1 0KE      -0.663500
     24 O28         -5.8220    -5.3830     2.5220 o          1 0KE      -0.747833
     25 O23         -6.4310     2.4050     3.5490 oh         1 0KE      -0.498100
     26 O6           0.0580     0.0240     4.8450 oh         1 0KE      -0.460100
     27 O9           3.4290    -0.0010     1.1840 os         1 0KE      -0.314900
     28 O26         -7.2980    -3.5600     3.4530 os         1 0KE      -0.471200
     29 P27         -6.8790    -5.1120     3.5220 p5         1 0KE       0.660900
     30 H1          -0.5420     0.0000    -0.9380 ha         1 0KE       0.104000
     31 H2           1.9010    -0.0100    -0.9400 ha         1 0KE       0.109000
     32 H3           1.9570     0.0130     3.3410 ha         1 0KE       0.126000
     33 H4          -9.2770    -1.8190     3.1870 h4         1 0KE       0.019100
     34 H5          -2.7250     0.0020     0.3080 ha         1 0KE       0.124000
     35 H6         -10.2880     2.2350     3.1250 hc         1 0KE      -0.004300
     36 H7          -9.0040     3.0920     3.9900 hc         1 0KE      -0.004300
     37 H8          -8.9480     2.9620     2.2260 hc         1 0KE      -0.004300
     38 H9           5.1360     0.0000     0.0310 h1         1 0KE      -0.008633
     39 H10          3.7640    -0.8870    -0.6460 h1         1 0KE      -0.008633
     40 H11          3.7610     0.8820    -0.6480 h1         1 0KE      -0.008633
     41 H12         -4.5980    -0.8620     4.3490 h1         1 0KE       0.055700
     42 H13         -4.5980     0.9070     4.3400 h1         1 0KE       0.055700
     43 H14         -5.8690    -2.5570     4.5490 h1         1 0KE      -0.003800
     44 H15         -5.6150    -2.5660     2.7990 h1         1 0KE      -0.003800
     45 H16         -4.7320     0.0300     1.6430 hn         1 0KE       0.293800
     46 H19         -6.5330     2.8790     2.7410 ho         1 0KE       0.382000
     47 H20          0.0860    -0.8500     5.1990 ho         1 0KE       0.410000
     48 C25         -6.3570    -2.4920     3.5840 c3         1 0KE       0.314700
@<TRIPOS>BOND
     1     1     2 ar  
     2     1     5 ar  
     3     1    30 1   
     4     2     9 ar  
     5     2    31 1   
     6     3     8 ar  
     7     3     9 ar  
     8     3    32 1   
     9     4     6 ar  
    10     4    18 ar  
    11     4    33 1   
    12     5     8 ar  
    13     5    12 1   
    14     6     7 ar  
    15     6    48 1   
    16     7    10 ar  
    17     7    17 1   
    18     8    19 1   
    19     9    27 1   
    20    10    11 ar  
    21    10    25 1   
    22    11    15 1   
    23    11    18 ar  
    24    12    13 2   
    25    12    34 1   
    26    13    14 1   
    27    13    20 1   
    28    14    19 1   
    29    14    23 2   
    30    15    35 1   
    31    15    36 1   
    32    15    37 1   
    33    16    27 1   
    34    16    38 1   
    35    16    39 1   
    36    16    40 1   
    37    17    20 1   
    38    17    41 1   
    39    17    42 1   
    40    19    26 1   
    41    20    45 1   
    42    21    29 1   
    43    22    29 1   
    44    24    29 1   
    45    25    46 1   
    46    26    47 1   
    47    28    29 1   
    48    28    48 1   
    49    43    48 1   
    50    44    48 1   
@<TRIPOS>SUBSTRUCTURE
     1 0KE         1 TEMP              0 ****  ****    0 ROOT
