@<TRIPOS>MOLECULE
0KF
   53    57     1     0     0
SMALL
bcc


@<TRIPOS>ATOM
      1 C3           0.0000     0.0000     0.0000 ca         1 0KF      -0.066000
      2 C4           1.3820     0.0000     0.0000 ca         1 0KF      -0.133000
      3 C2          -0.6940     0.0060     1.1950 ca         1 0KF      -0.120000
      4 C6           1.3820     0.0010     2.4040 ca         1 0KF      -0.137000
      5 C11          6.4080    -0.5140     1.3320 cc         1 0KF      -0.260300
      6 C23          0.3830     4.6600     4.3190 cc         1 0KF      -0.367100
      7 C5           2.0770     0.0000     1.2030 ca         1 0KF      -0.081400
      8 C1          -0.0040     0.0070     2.4000 ca         1 0KF       0.119100
      9 C10          5.6040    -0.6840     0.2180 cd         1 0KF      -0.406900
     10 C12          7.7050    -0.8030     0.9000 cc         1 0KF       0.305600
     11 C24         -0.0380     5.4780     5.3230 cd         1 0KF       0.020200
     12 C21         -0.9400     3.5350     5.6690 cc         1 0KF      -0.315300
     13 C20         -1.6390     2.4030     6.1280 cc         1 0KF       0.059000
     14 C19         -1.5520     1.2390     5.4300 cd         1 0KF      -0.286300
     15 C18         -0.7700     1.1750     4.2640 cd         1 0KF       0.682600
     16 C8           4.1470    -0.4950     0.1420 c          1 0KF       0.634700
     17 C27          1.1300     7.4200     4.5940 c          1 0KF       0.599100
     18 C30          0.9560     9.8670     3.7420 cx         1 0KF      -0.048400
     19 C31          2.4380     9.4870     3.7230 cx         1 0KF      -0.048400
     20 C29          1.5030     8.8700     4.7660 cx         1 0KF      -0.218700
     21 C16          8.9500    -0.7630     1.7470 c3         1 0KF       0.004600
     22 N13          7.6450    -1.1160    -0.3690 nd         1 0KF      -0.641800
     23 N25         -0.8390     4.7760     6.1300 nd         1 0KF      -0.237600
     24 N32         -0.1170     2.2270     3.8340 nc         1 0KF      -0.714800
     25 N22         -0.1860     3.4390     4.5290 na         1 0KF       0.735200
     26 N14          6.4360    -1.0620    -0.7980 na         1 0KF       0.668400
     27 N7           3.4750    -0.0070     1.2040 ns         1 0KF      -0.003100
     28 O9           3.5490    -0.7790    -0.8780 o          1 0KF      -0.663100
     29 O28          1.5670     6.7880     3.6560 o          1 0KF      -0.646100
     30 O17         -0.6880     0.0080     3.5740 os         1 0KF      -0.326400
     31 H1          -0.5400    -0.0000    -0.9390 ha         1 0KF       0.107000
     32 H2           1.9230    -0.0030    -0.9380 ha         1 0KF       0.174000
     33 H3          -1.7770     0.0080     1.1910 ha         1 0KF       0.113000
     34 H4           1.9220     0.0010     3.3430 ha         1 0KF       0.116000
     35 H5           6.0720    -0.4840     2.3610 ha         1 0KF       0.135000
     36 H6           1.0420     4.9310     3.5030 h4         1 0KF       0.217000
     37 H7          -2.2410     2.4580     7.0270 ha         1 0KF       0.124000
     38 H8          -2.0860     0.3610     5.7720 ha         1 0KF       0.136000
     39 H10          0.3540     9.4400     2.9490 hc         1 0KF       0.052200
     40 H11          2.7410     8.8280     2.9190 hc         1 0KF       0.052200
     41 H12          3.1190    10.2430     4.0950 hc         1 0KF       0.052200
     42 H13          1.6170     9.2660     5.7680 hc         1 0KF       0.064700
     43 H14          9.8230    -0.7680     1.1050 hc         1 0KF       0.009367
     44 H15          8.9740    -1.6310     2.3960 hc         1 0KF       0.009367
     45 H16          8.9490     0.1380     2.3480 hc         1 0KF       0.009367
     46 H20          3.9770     0.3960     1.9710 hn         1 0KF       0.177500
     47 N26          0.3090     6.8260     5.4820 ns         1 0KF       0.024900
     48 C15          6.0140    -1.3510    -2.1720 c3         1 0KF      -0.017400
     49 H9           0.7320    10.8550     4.1250 hc         1 0KF       0.052200
     50 H17          5.3040    -2.1700    -2.1660 h1         1 0KF       0.037367
     51 H18          6.8780    -1.6250    -2.7650 h1         1 0KF       0.037367
     52 H19          5.5470    -0.4720    -2.5990 h1         1 0KF       0.037367
     53 H21         -0.0490     7.3470     6.2580 hn         1 0KF       0.170500
@<TRIPOS>BOND
     1     1     2 ar  
     2     1     3 ar  
     3     1    31 1   
     4     2     7 ar  
     5     2    32 1   
     6     3     8 ar  
     7     3    33 1   
     8     4     7 ar  
     9     4     8 ar  
    10     4    34 1   
    11     5     9 2   
    12     5    10 1   
    13     5    35 1   
    14     6    11 2   
    15     6    25 1   
    16     6    36 1   
    17     7    27 1   
    18     8    30 1   
    19     9    16 1   
    20     9    26 1   
    21    10    21 1   
    22    10    22 2   
    23    11    23 1   
    24    11    47 1   
    25    12    13 1   
    26    12    23 2   
    27    12    25 1   
    28    13    14 2   
    29    13    37 1   
    30    14    15 1   
    31    14    38 1   
    32    15    24 2   
    33    15    30 1   
    34    16    27 1   
    35    16    28 2   
    36    17    20 1   
    37    17    29 2   
    38    17    47 1   
    39    18    19 1   
    40    18    20 1   
    41    18    39 1   
    42    18    49 1   
    43    19    20 1   
    44    19    40 1   
    45    19    41 1   
    46    20    42 1   
    47    21    43 1   
    48    21    44 1   
    49    21    45 1   
    50    22    26 1   
    51    24    25 1   
    52    26    48 1   
    53    27    46 1   
    54    47    53 1   
    55    48    50 1   
    56    48    51 1   
    57    48    52 1   
@<TRIPOS>SUBSTRUCTURE
     1 0KF         1 TEMP              0 ****  ****    0 ROOT
