@<TRIPOS>MOLECULE
0KF
   53    57     1     0     0
SMALL
bcc


@<TRIPOS>ATOM
      1 C3           0.6010     2.0970     4.4210 ca         1 0KF      -0.092000
      2 C4           1.4880     1.7930     3.3960 ca         1 0KF      -0.181000
      3 C2           0.3850     1.2070     5.4720 ca         1 0KF      -0.147000
      4 C6           1.9770    -0.3500     4.4430 ca         1 0KF      -0.148000
      5 C11          4.7140     0.0850    -0.1670 cc         1 0KF      -0.257300
      6 C23         -3.6110    -2.0010     5.7730 cc         1 0KF      -0.163100
      7 C5           2.1940     0.5630     3.3910 ca         1 0KF       0.080600
      8 C1           1.0850    -0.0020     5.4620 ca         1 0KF       0.113100
      9 C10          4.7570    -0.7660     0.9560 cd         1 0KF      -0.188900
     10 C12          5.7250    -0.4230    -1.0580 cc         1 0KF       0.299600
     11 C24         -4.4120    -2.8920     6.5520 cd         1 0KF       0.166200
     12 C21         -2.4360    -2.8920     7.5170 cc         1 0KF      -0.084300
     13 C20         -1.2560    -3.0640     8.3190 cc         1 0KF      -0.034000
     14 C19         -0.1300    -2.3780     7.9720 cd         1 0KF      -0.232300
     15 C18         -0.1860    -1.5110     6.8070 cd         1 0KF       0.587600
     16 C8           3.9550    -0.7530     2.1990 c          1 0KF       0.713700
     17 C27         -6.5150    -2.6870     5.2900 c          1 0KF       0.698100
     18 C30         -8.5350    -3.3150     3.8290 cx         1 0KF      -0.100400
     19 C31         -8.9630    -2.1750     4.6980 cx         1 0KF      -0.100400
     20 C29         -7.9340    -3.1580     5.2070 cx         1 0KF      -0.226700
     21 C16          6.0660     0.1350    -2.3800 c3         1 0KF      -0.120400
     22 N13          6.3320    -1.5150    -0.4910 nd         1 0KF      -0.488800
     23 N25         -3.6780    -3.4340     7.6230 nd         1 0KF      -0.291600
     24 N32         -1.2650    -1.3220     6.0280 nc         1 0KF      -0.520800
     25 N22         -2.3540    -1.9960     6.3820 na         1 0KF       0.190200
     26 N14          5.7630    -1.7180     0.6940 na         1 0KF       0.147400
     27 N7           3.0670     0.3060     2.3210 ns         1 0KF      -0.460100
     28 O9           4.0830    -1.6400     3.0660 o          1 0KF      -0.599100
     29 O28         -6.0440    -1.8670     4.4780 o          1 0KF      -0.602100
     30 O17          1.0190    -0.8800     6.5520 os         1 0KF      -0.355400
     31 H1           0.0600     3.0560     4.4030 ha         1 0KF       0.140000
     32 H2           1.6330     2.5220     2.5840 ha         1 0KF       0.133000
     33 H3          -0.3200     1.4410     6.2810 ha         1 0KF       0.152000
     34 H4           2.4990    -1.3200     4.4900 ha         1 0KF       0.188000
     35 H5           4.0690     0.9370    -0.3490 ha         1 0KF       0.162000
     36 H6          -3.8600    -1.4180     4.8850 h4         1 0KF       0.228000
     37 H7          -1.3040    -3.7420     9.1830 ha         1 0KF       0.171000
     38 H8           0.8160    -2.4480     8.5240 ha         1 0KF       0.172000
     39 H10         -7.8950    -3.1020     2.9530 hc         1 0KF       0.085200
     40 H11         -8.6260    -1.1540     4.4370 hc         1 0KF       0.085200
     41 H12         -9.9670    -2.1850     5.1580 hc         1 0KF       0.085200
     42 H13         -8.2440    -3.8730     5.9940 hc         1 0KF       0.090700
     43 H14          7.1370     0.4570    -2.4090 hc         1 0KF       0.051367
     44 H15          5.4190     1.0200    -2.5920 hc         1 0KF       0.051367
     45 H16          5.9080    -0.6270    -3.1830 hc         1 0KF       0.051367
     46 H20          3.0590     0.9840     1.5900 hn         1 0KF       0.324500
     47 N26         -5.7500    -3.2160     6.3220 ns         1 0KF      -0.448100
     48 C15          6.1240    -2.7890     1.5990 c3         1 0KF       0.032600
     49 H9          -9.2250    -4.1590     3.6540 hc         1 0KF       0.085200
     50 H17          5.2240    -3.4410     1.7620 h1         1 0KF       0.073367
     51 H18          6.4260    -2.3410     2.5830 h1         1 0KF       0.073367
     52 H19          6.9670    -3.3940     1.1750 h1         1 0KF       0.073367
     53 H21         -6.1680    -3.8660     6.9500 hn         1 0KF       0.334500
@<TRIPOS>BOND
     1     1     2 ar  
     2     1     3 ar  
     3     1    31 1   
     4     2     7 ar  
     5     2    32 1   
     6     3     8 ar  
     7     3    33 1   
     8     4     7 ar  
     9     4     8 ar  
    10     4    34 1   
    11     5     9 2   
    12     5    10 1   
    13     5    35 1   
    14     6    11 2   
    15     6    25 1   
    16     6    36 1   
    17     7    27 1   
    18     8    30 1   
    19     9    16 1   
    20     9    26 1   
    21    10    21 1   
    22    10    22 2   
    23    11    23 1   
    24    11    47 1   
    25    12    13 1   
    26    12    23 2   
    27    12    25 1   
    28    13    14 2   
    29    13    37 1   
    30    14    15 1   
    31    14    38 1   
    32    15    24 2   
    33    15    30 1   
    34    16    27 1   
    35    16    28 2   
    36    17    20 1   
    37    17    29 2   
    38    17    47 1   
    39    18    19 1   
    40    18    20 1   
    41    18    39 1   
    42    18    49 1   
    43    19    20 1   
    44    19    40 1   
    45    19    41 1   
    46    20    42 1   
    47    21    43 1   
    48    21    44 1   
    49    21    45 1   
    50    22    26 1   
    51    24    25 1   
    52    26    48 1   
    53    27    46 1   
    54    47    53 1   
    55    48    50 1   
    56    48    51 1   
    57    48    52 1   
@<TRIPOS>SUBSTRUCTURE
     1 0KF         1 TEMP              0 ****  ****    0 ROOT
