@<TRIPOS>MOLECULE
molecule
   53    57     1     0     0
SMALL
bcc


@<TRIPOS>ATOM
      1 C3           0.0000     0.0000     0.0000 ca         1 0KF      -0.105000
      2 C4           1.3820     0.0000     0.0000 ca         1 0KF      -0.138000
      3 C2          -0.6940     0.0060     1.1950 ca         1 0KF      -0.138000
      4 C6           1.3820     0.0010     2.4040 ca         1 0KF      -0.158000
      5 C11          6.4080    -0.5140     1.3320 cc         1 0KF      -0.279300
      6 C23          0.3830     4.6600     4.3190 cd         1 0KF      -0.169100
      7 C5           2.0770     0.0000     1.2030 ca         1 0KF       0.064600
      8 C1          -0.0040     0.0070     2.4000 ca         1 0KF       0.107100
      9 C10          5.6040    -0.6840     0.2180 cd         1 0KF      -0.207900
     10 C12          7.7050    -0.8030     0.9000 cd         1 0KF       0.306600
     11 C24         -0.0380     5.4780     5.3230 cc         1 0KF       0.183200
     12 C21         -0.9400     3.5350     5.6690 cd         1 0KF      -0.096300
     13 C20         -1.6390     2.4030     6.1280 cd         1 0KF      -0.005000
     14 C19         -1.5520     1.2390     5.4300 cc         1 0KF      -0.268300
     15 C18         -0.7700     1.1750     4.2640 cc         1 0KF       0.635600
     16 C8           4.1470    -0.4950     0.1420 c          1 0KF       0.712700
     17 C27          1.1300     7.4200     4.5940 c          1 0KF       0.700100
     18 C30          0.9560     9.8670     3.7420 cx         1 0KF      -0.106400
     19 C31          2.4380     9.4870     3.7230 cx         1 0KF      -0.106400
     20 C29          1.5030     8.8700     4.7660 cx         1 0KF      -0.236700
     21 C16          8.9500    -0.7630     1.7470 c3         1 0KF      -0.105400
     22 N13          7.6450    -1.1160    -0.3690 nc         1 0KF      -0.509800
     23 N25         -0.8390     4.7760     6.1300 nc         1 0KF      -0.320600
     24 N32         -0.1170     2.2270     3.8340 nd         1 0KF      -0.560800
     25 N22         -0.1860     3.4390     4.5290 na         1 0KF       0.216200
     26 N14          6.4360    -1.0620    -0.7980 na         1 0KF       0.181400
     27 N7           3.4750    -0.0070     1.2040 ns         1 0KF      -0.458100
     28 O9           3.5490    -0.7790    -0.8780 o          1 0KF      -0.611100
     29 O28          1.5670     6.7880     3.6560 o          1 0KF      -0.605100
     30 O17         -0.6880     0.0080     3.5740 os         1 0KF      -0.338400
     31 H1          -0.5400    -0.0000    -0.9390 ha         1 0KF       0.141000
     32 H2           1.9230    -0.0030    -0.9380 ha         1 0KF       0.189000
     33 H3          -1.7770     0.0080     1.1910 ha         1 0KF       0.142000
     34 H4           1.9220     0.0010     3.3430 ha         1 0KF       0.142000
     35 H5           6.0720    -0.4840     2.3610 ha         1 0KF       0.159000
     36 H6           1.0420     4.9310     3.5030 h4         1 0KF       0.233000
     37 H7          -2.2410     2.4580     7.0270 ha         1 0KF       0.168000
     38 H8          -2.0860     0.3610     5.7720 ha         1 0KF       0.162000
     39 H10          0.3540     9.4400     2.9490 hc         1 0KF       0.085950
     40 H11          2.7410     8.8280     2.9190 hc         1 0KF       0.085950
     41 H12          3.1190    10.2430     4.0950 hc         1 0KF       0.085950
     42 H13          1.6170     9.2660     5.7680 hc         1 0KF       0.091700
     43 H14          9.8230    -0.7680     1.1050 hc         1 0KF       0.049700
     44 H15          8.9740    -1.6310     2.3960 hc         1 0KF       0.049700
     45 H16          8.9490     0.1380     2.3480 hc         1 0KF       0.049700
     46 H20          3.9770     0.3960     1.9710 hn         1 0KF       0.336500
     47 N26          0.3090     6.8260     5.4820 ns         1 0KF      -0.440100
     48 C15          6.0140    -1.3510    -2.1720 c3         1 0KF       0.054600
     49 H9           0.7320    10.8550     4.1250 hc         1 0KF       0.085950
     50 H17          5.3040    -2.1700    -2.1660 h1         1 0KF       0.068700
     51 H18          6.8780    -1.6250    -2.7650 h1         1 0KF       0.068700
     52 H19          5.5470    -0.4720    -2.5990 h1         1 0KF       0.068700
     53 H21         -0.0490     7.3470     6.2580 hn         1 0KF       0.339500
@<TRIPOS>BOND
     1    22    10 2
     2    22    26 1
     3    21    10 1
     4    48    26 1
     5    10     5 1
     6    26     9 1
     7     5     9 2
     8     9    16 1
     9    28    16 2
    10    16    27 1
    11    27     7 1
    12     4     7 ar
    13     4     8 ar
    14     7     2 ar
    15    30     8 1
    16    30    15 1
    17     8     3 ar
    18     2     1 ar
    19    14    15 1
    20    14    13 2
    21    15    24 2
    22    13    12 1
    23    24    25 1
    24    12    25 1
    25    12    23 2
    26    25     6 1
    27    23    11 1
    28     3     1 ar
    29     6    11 2
    30    11    47 1
    31    47    17 1
    32    17    29 2
    33    17    20 1
    34    19    20 1
    35    19    18 1
    36    20    18 1
    37     1    31 1
    38     2    32 1
    39     3    33 1
    40     4    34 1
    41     5    35 1
    42     6    36 1
    43    13    37 1
    44    14    38 1
    45    18    49 1
    46    18    39 1
    47    19    40 1
    48    19    41 1
    49    20    42 1
    50    21    43 1
    51    21    44 1
    52    21    45 1
    53    48    50 1
    54    48    51 1
    55    48    52 1
    56    27    46 1
    57    47    53 1
@<TRIPOS>SUBSTRUCTURE
     1 0KF         1 TEMP              0 ****  ****    0 ROOT
