@<TRIPOS>MOLECULE
0KG
   39    40     1     0     0
SMALL
bcc


@<TRIPOS>ATOM
      1 CAT          0.0000     0.0000     0.0000 c3         1 0KG      -0.042900
      2 CAS          1.5300     0.0000     0.0000 c3         1 0KG      -0.018900
      3 CAR          2.0400     0.0000     1.4430 c3         1 0KG      -0.027400
      4 CAQ          1.5300     1.2490     2.1640 c3         1 0KG      -0.018900
      5 CAU         -0.0010     1.2490     2.1640 c3         1 0KG      -0.042900
      6 CAP         -0.5100     1.2490     0.7210 c3         1 0KG       0.031700
      7 NAN         -1.9750     1.2490     0.7210 ns         1 0KG      -0.253900
      8 CAM         -2.6490     2.4130     0.8230 c          1 0KG       0.545100
      9 OAO         -2.0430     3.4590     0.9150 o          1 0KG      -0.535100
     10 CAL         -4.1560     2.4130     0.8220 c3         1 0KG       0.125400
     11 OAK         -4.6320     3.7540     0.9400 os         1 0KG      -0.177900
     12 CAB         -5.9800     3.9320     0.9550 ca         1 0KG       0.167100
     13 CAA         -6.8260     2.8380     0.8590 ca         1 0KG      -0.289000
     14 CAF         -8.1950     3.0200     0.8750 ca         1 0KG      -0.144000
     15 CAE         -8.7230     4.2940     0.9860 ca         1 0KG      -0.208000
     16 CAD         -7.8810     5.3870     1.0820 ca         1 0KG      -0.034000
     17 CAC         -6.5110     5.2090     1.0730 ca         1 0KG       0.026500
     18 PAG         -5.4080     6.6430     1.2070 p5         1 0KG       0.445000
     19 OAI         -5.0800     7.2070    -0.2660 o          1 0KG      -0.723167
     20 OAJ         -6.1270     7.7930     2.0740 o          1 0KG      -0.723167
     21 OAH         -4.1500     6.2360     1.8710 o          1 0KG      -0.723167
     22 H1          -0.3600    -0.8840     0.5130 hc         1 0KG       0.019700
     23 H2          -0.3600     0.0020    -1.0220 hc         1 0KG       0.019700
     24 H3           1.8900     0.8860    -0.5090 hc         1 0KG       0.010200
     25 H4           1.8900    -0.8860    -0.5090 hc         1 0KG       0.010200
     26 H5           1.6760    -0.8840     1.9530 hc         1 0KG       0.001700
     27 H6           3.1230     0.0020     1.4420 hc         1 0KG       0.001700
     28 H7           1.8890     2.1330     1.6510 hc         1 0KG       0.010200
     29 H8           1.8890     1.2470     3.1860 hc         1 0KG       0.010200
     30 H9          -0.3600     2.1350     2.6730 hc         1 0KG       0.019700
     31 H10         -0.3600     0.3630     2.6730 hc         1 0KG       0.019700
     32 H11         -0.1450     2.1320     0.2110 h1         1 0KG       0.061700
     33 H12         -2.4760     0.3890     0.6150 hn         1 0KG       0.158500
     34 H13         -4.5170     1.9810    -0.1040 h1         1 0KG      -0.012300
     35 H14         -4.5170     1.8270     1.6590 h1         1 0KG      -0.012300
     36 H15         -6.4130     1.8400     0.7720 ha         1 0KG       0.072000
     37 H16         -8.8560     2.1650     0.8000 ha         1 0KG       0.053000
     38 H17         -9.7960     4.4350     0.9960 ha         1 0KG       0.060000
     39 H18         -8.2960     6.3840     1.1710 ha         1 0KG       0.115000
@<TRIPOS>BOND
     1     1     2 1   
     2     1     6 1   
     3     1    22 1   
     4     1    23 1   
     5     2     3 1   
     6     2    24 1   
     7     2    25 1   
     8     3     4 1   
     9     3    26 1   
    10     3    27 1   
    11     4     5 1   
    12     4    28 1   
    13     4    29 1   
    14     5     6 1   
    15     5    30 1   
    16     5    31 1   
    17     6     7 1   
    18     6    32 1   
    19     7     8 1   
    20     7    33 1   
    21     8     9 2   
    22     8    10 1   
    23    10    11 1   
    24    10    34 1   
    25    10    35 1   
    26    11    12 1   
    27    12    13 ar  
    28    12    17 ar  
    29    13    14 ar  
    30    13    36 1   
    31    14    15 ar  
    32    14    37 1   
    33    15    16 ar  
    34    15    38 1   
    35    16    17 ar  
    36    16    39 1   
    37    17    18 1   
    38    18    19 1   
    39    18    20 1   
    40    18    21 1   
@<TRIPOS>SUBSTRUCTURE
     1 0KG         1 TEMP              0 ****  ****    0 ROOT
