@<TRIPOS>MOLECULE
0KG
   40    41     1     0     0
SMALL
bcc


@<TRIPOS>ATOM
      1 CAT          0.2490    -0.0180    -0.3370 c3         1 0KG      -0.098400
      2 CAS          1.7300     0.0800    -0.0400 c3         1 0KG      -0.069900
      3 CAR          1.9940     0.0190     1.4500 c3         1 0KG      -0.076400
      4 CAQ          1.2300     1.1070     2.1750 c3         1 0KG      -0.069900
      5 CAU         -0.2520     1.0410     1.8810 c3         1 0KG      -0.098400
      6 CAP         -0.5220     1.1140     0.3660 c3         1 0KG       0.108700
      7 NAN         -1.9390     1.0340     0.0640 ns         1 0KG      -0.517900
      8 CAM         -2.6790     2.1520    -0.1980 c          1 0KG       0.634100
      9 OAO         -2.1700     3.2690    -0.4700 o          1 0KG      -0.677100
     10 CAL         -4.2050     2.0530    -0.2730 c3         1 0KG       0.064400
     11 OAK         -4.6960     0.7660     0.0940 os         1 0KG      -0.334900
     12 CAB         -5.6170     0.7760     1.1470 ca         1 0KG       0.180100
     13 CAA         -6.7900     1.5320     0.9210 ca         1 0KG      -0.208000
     14 CAF         -7.8280     1.5060     1.8410 ca         1 0KG      -0.106000
     15 CAE         -7.7110     0.7230     2.9910 ca         1 0KG      -0.175000
     16 CAD         -6.5490    -0.0090     3.2010 ca         1 0KG      -0.052000
     17 CAC         -5.4690     0.0090     2.3040 ca         1 0KG      -0.296500
     18 PAG         -4.1990    -0.9580     2.9170 p5         1 0KG       1.398900
     19 OAI         -4.7370    -2.2840     3.2800 o          1 0KG      -0.868000
     20 OAJ         -3.8590    -0.1530     4.3120 oh         1 0KG      -0.799400
     21 OAH         -2.9320    -0.7440     2.1690 o          1 0KG      -0.868000
     22 H1          -0.1420    -1.0090     0.0140 hc         1 0KG       0.061950
     23 H2           0.0860     0.0430    -1.4440 hc         1 0KG       0.061950
     24 H3           2.1350     1.0410    -0.4540 hc         1 0KG       0.026950
     25 H4           2.2680    -0.7600    -0.5520 hc         1 0KG       0.026950
     26 H5           3.0920     0.1310     1.6450 hc         1 0KG       0.032700
     27 H6           1.6790    -0.9830     1.8440 hc         1 0KG       0.032700
     28 H7           1.3920     1.0040     3.2800 hc         1 0KG       0.026950
     29 H8           1.6310     2.1090     1.8690 hc         1 0KG       0.026950
     30 H9          -0.7660     1.8980     2.3890 hc         1 0KG       0.061950
     31 H10         -0.7030     0.0930     2.2880 hc         1 0KG       0.061950
     32 H11         -0.1320     2.1030    -0.0220 h1         1 0KG       0.059700
     33 H12         -2.4110     0.2340     0.4630 hn         1 0KG       0.383500
     34 H13         -4.5050     2.2050    -1.3450 h1         1 0KG       0.063700
     35 H14         -4.6320     2.8720     0.3620 h1         1 0KG       0.063700
     36 H15         -6.8740     2.1300     0.0030 ha         1 0KG       0.121000
     37 H16         -8.7390     2.0940     1.6610 ha         1 0KG       0.111000
     38 H17         -8.5320     0.6860     3.7210 ha         1 0KG       0.118000
     39 H18         -6.4450    -0.6400     4.1040 ha         1 0KG       0.164000
     40 HAN2        -2.9770     0.2010     4.3090 ho         1 0KG       0.425000
@<TRIPOS>BOND
     1     1     2 1   
     2     1     6 1   
     3     1    22 1   
     4     1    23 1   
     5     2     3 1   
     6     2    24 1   
     7     2    25 1   
     8     3     4 1   
     9     3    26 1   
    10     3    27 1   
    11     4     5 1   
    12     4    28 1   
    13     4    29 1   
    14     5     6 1   
    15     5    30 1   
    16     5    31 1   
    17     6     7 1   
    18     6    32 1   
    19     7     8 1   
    20     7    33 1   
    21     8     9 2   
    22     8    10 1   
    23    10    11 1   
    24    10    34 1   
    25    10    35 1   
    26    11    12 1   
    27    12    13 ar  
    28    12    17 ar  
    29    13    14 ar  
    30    13    36 1   
    31    14    15 ar  
    32    14    37 1   
    33    15    16 ar  
    34    15    38 1   
    35    16    17 ar  
    36    16    39 1   
    37    17    18 1   
    38    18    19 1   
    39    18    20 1   
    40    18    21 1   
    41    20    40 1   
@<TRIPOS>SUBSTRUCTURE
     1 0KG         1 TEMP              0 ****  ****    0 ROOT
