@<TRIPOS>MOLECULE
molecule
   33    34     1     0     0
SMALL
bcc


@<TRIPOS>ATOM
      1 OAC          0.0000     0.0000     0.0000 o          1 0KH      -0.892167
      2 PAW          1.6100     0.0000     0.0000 p5         1 0KH       1.042000
      3 OAD          2.1470     0.0000     1.5180 o          1 0KH      -0.892167
      4 OAB          2.1030    -1.2090    -0.6970 o          1 0KH      -0.892167
      5 CAV          2.2150     1.4810    -0.8560 ca         1 0KH      -0.140500
      6 CAM          3.4230     1.4460    -1.5260 ca         1 0KH      -0.051000
      7 CAH          3.8840     2.5750    -2.1790 ca         1 0KH      -0.209000
      8 CAG          3.1400     3.7390    -2.1610 ca         1 0KH      -0.143000
      9 CAL          1.9330     3.7790    -1.4910 ca         1 0KH      -0.275000
     10 CAU          1.4640     2.6460    -0.8420 ca         1 0KH       0.173100
     11 OAP          0.2760     2.6830    -0.1810 os         1 0KH      -0.209900
     12 CAN         -0.4370     3.9210    -0.1980 c3         1 0KH       0.079400
     13 CAQ         -1.7200     3.7720     0.5790 c          1 0KH       0.631100
     14 OAA         -1.9960     2.7100     1.0960 o          1 0KH      -0.473100
     15 NAO         -2.5600     4.8180     0.7000 ns         1 0KH      -0.500100
     16 CAS         -3.7950     4.6550     1.3400 ca         1 0KH       0.106600
     17 CAT         -4.9070     5.3590     0.8970 ca         1 0KH      -0.020600
     18 Cl1         -4.7700     6.4440    -0.4510 cl         1 0KH      -0.113400
     19 CAR         -6.1250     5.1950     1.5320 ca         1 0KH       0.042400
     20 Cl2         -7.5170     6.0730     0.9810 cl         1 0KH      -0.127400
     21 CAJ         -6.2350     4.3290     2.6080 ca         1 0KH      -0.157000
     22 CAI         -5.1280     3.6280     3.0490 ca         1 0KH      -0.103000
     23 CAK         -3.9100     3.7840     2.4150 ca         1 0KH      -0.111000
     24 H3           4.0080     0.5340    -1.5410 ha         1 0KH       0.149000
     25 H4           4.8310     2.5460    -2.7040 ha         1 0KH       0.082000
     26 H5           3.5060     4.6220    -2.6710 ha         1 0KH       0.075000
     27 H6           1.3490     4.6910    -1.4800 ha         1 0KH       0.081000
     28 H7           0.1710     4.6950     0.2550 h1         1 0KH       0.029200
     29 H8          -0.6640     4.1930    -1.2220 h1         1 0KH       0.029200
     30 H9          -2.2910     5.7190     0.3560 hn         1 0KH       0.318500
     31 H10         -7.1890     4.2030     3.1050 ha         1 0KH       0.132000
     32 H11         -5.2170     2.9500     3.8890 ha         1 0KH       0.140000
     33 H12         -3.0440     3.2330     2.7620 ha         1 0KH       0.202000
@<TRIPOS>BOND
     1    18    17 1   
     2    20    19 1   
     3     4     2 1   
     4    11    12 1   
     5    11    10 1   
     6    17    19 ar  
     7    17    16 ar  
     8    12    13 1   
     9     9    10 ar  
    10     9     8 ar  
    11    10     5 ar  
    12    19    21 ar  
    13    14    13 2   
    14    13    15 1   
    15     8     7 ar  
    16     2     5 1   
    17     2     3 1   
    18     2     1 1   
    19     5     6 ar  
    20    15    16 1   
    21     7     6 ar  
    22    16    23 ar  
    23    21    22 ar  
    24    23    22 ar  
    25     6    24 1   
    26     7    25 1   
    27     8    26 1   
    28     9    27 1   
    29    12    28 1   
    30    12    29 1   
    31    15    30 1   
    32    21    31 1   
    33    22    32 1   
    34    23    33 1   
@<TRIPOS>SUBSTRUCTURE
     1 0KH         1 TEMP              0 ****  ****    0 ROOT
