@<TRIPOS>MOLECULE
0KH
   33    34     1     0     0
SMALL
bcc


@<TRIPOS>ATOM
      1 OAC          0.0000     0.0000     0.0000 o          1 0KH      -0.721833
      2 PAW          1.6100     0.0000     0.0000 p5         1 0KH       0.443000
      3 OAD          2.1470     0.0000     1.5180 o          1 0KH      -0.721833
      4 OAB          2.1030    -1.2090    -0.6970 o          1 0KH      -0.721833
      5 CAV          2.2150     1.4810    -0.8560 ca         1 0KH       0.025500
      6 CAM          3.4230     1.4460    -1.5260 ca         1 0KH      -0.035000
      7 CAH          3.8840     2.5750    -2.1790 ca         1 0KH      -0.207000
      8 CAG          3.1400     3.7390    -2.1610 ca         1 0KH      -0.141000
      9 CAL          1.9330     3.7790    -1.4910 ca         1 0KH      -0.289000
     10 CAU          1.4640     2.6460    -0.8420 ca         1 0KH       0.169100
     11 OAP          0.2760     2.6830    -0.1810 os         1 0KH      -0.171900
     12 CAN         -0.4370     3.9210    -0.1980 c3         1 0KH       0.126400
     13 CAQ         -1.7200     3.7720     0.5790 c          1 0KH       0.529100
     14 OAA         -1.9960     2.7100     1.0960 o          1 0KH      -0.504100
     15 NAO         -2.5600     4.8180     0.7000 ns         1 0KH      -0.086100
     16 CAS         -3.7950     4.6550     1.3400 ca         1 0KH      -0.028400
     17 CAT         -4.9070     5.3590     0.8970 ca         1 0KH      -0.088600
     18 Cl1         -4.7700     6.4440    -0.4510 cl         1 0KH      -0.033400
     19 CAR         -6.1250     5.1950     1.5320 ca         1 0KH      -0.012600
     20 Cl2         -7.5170     6.0730     0.9810 cl         1 0KH      -0.058400
     21 CAJ         -6.2350     4.3290     2.6080 ca         1 0KH      -0.141000
     22 CAI         -5.1280     3.6280     3.0490 ca         1 0KH      -0.068000
     23 CAK         -3.9100     3.7840     2.4150 ca         1 0KH      -0.094000
     24 H3           4.0080     0.5340    -1.5410 ha         1 0KH       0.112000
     25 H4           4.8310     2.5460    -2.7040 ha         1 0KH       0.060000
     26 H5           3.5060     4.6220    -2.6710 ha         1 0KH       0.055000
     27 H6           1.3490     4.6910    -1.4800 ha         1 0KH       0.073000
     28 H7           0.1710     4.6950     0.2550 h1         1 0KH      -0.008300
     29 H8          -0.6640     4.1930    -1.2220 h1         1 0KH      -0.008300
     30 H9          -2.2910     5.7190     0.3560 hn         1 0KH       0.166500
     31 H10         -7.1890     4.2030     3.1050 ha         1 0KH       0.104000
     32 H11         -5.2170     2.9500     3.8890 ha         1 0KH       0.105000
     33 H12         -3.0440     3.2330     2.7620 ha         1 0KH       0.174000
@<TRIPOS>BOND
     1     1     2 1   
     2     2     3 1   
     3     2     4 1   
     4     2     5 1   
     5     5     6 ar  
     6     5    10 ar  
     7     6     7 ar  
     8     6    24 1   
     9     7     8 ar  
    10     7    25 1   
    11     8     9 ar  
    12     8    26 1   
    13     9    10 ar  
    14     9    27 1   
    15    10    11 1   
    16    11    12 1   
    17    12    13 1   
    18    12    28 1   
    19    12    29 1   
    20    13    14 2   
    21    13    15 1   
    22    15    16 1   
    23    15    30 1   
    24    16    17 ar  
    25    16    23 ar  
    26    17    18 1   
    27    17    19 ar  
    28    19    20 1   
    29    19    21 ar  
    30    21    22 ar  
    31    21    31 1   
    32    22    23 ar  
    33    22    32 1   
    34    23    33 1   
@<TRIPOS>SUBSTRUCTURE
     1 0KH         1 TEMP              0 ****  ****    0 ROOT
