@<TRIPOS>MOLECULE
0KH
   33    34     1     0     0
SMALL
bcc


@<TRIPOS>ATOM
      1 OAC          1.8990     0.7640     0.2020 oh         1 0KH      -0.785400
      2 PAW          3.2760    -0.0940     0.0320 p5         1 0KH       1.379900
      3 OAD          3.8060    -0.3690     1.3920 o          1 0KH      -0.868000
      4 OAB          4.0950     0.6210    -0.9750 o          1 0KH      -0.868000
      5 CAV          2.7220    -1.5850    -0.6560 ca         1 0KH      -0.299500
      6 CAM          3.5270    -2.6210    -0.1710 ca         1 0KH      -0.068000
      7 CAH          3.4060    -3.9430    -0.5910 ca         1 0KH      -0.213000
      8 CAG          2.4400    -4.2580    -1.5400 ca         1 0KH      -0.106000
      9 CAL          1.6050    -3.2640    -2.0360 ca         1 0KH      -0.249000
     10 CAU          1.7250    -1.9270    -1.5940 ca         1 0KH       0.221100
     11 OAP          0.8440    -0.9600    -2.0620 os         1 0KH      -0.299900
     12 CAN         -0.0300    -1.3850    -3.1110 c3         1 0KH       0.071400
     13 CAQ         -0.8950    -0.1930    -3.5790 c2         1 0KH       0.612300
     14 OAA         -0.5930     0.2920    -4.7010 o          1 0KH      -0.728300
     15 NAO         -2.0160     0.0130    -2.8460 ne         1 0KH      -0.579400
     16 CAS         -2.8820     1.0420    -2.9080 ca         1 0KH       0.348400
     17 CAT         -2.5730     2.4430    -3.0490 ca         1 0KH      -0.100600
     18 Cl1         -0.9530     2.9340    -3.1970 cl         1 0KH      -0.086400
     19 CAR         -3.5790     3.4050    -3.0170 ca         1 0KH       0.080400
     20 Cl2         -3.2100     5.0740    -3.2170 cl         1 0KH      -0.169400
     21 CAJ         -4.9190     3.0720    -2.8180 ca         1 0KH      -0.266000
     22 CAI         -5.2410     1.7250    -2.6340 ca         1 0KH      -0.097000
     23 CAK         -4.2730     0.7460    -2.6780 ca         1 0KH      -0.226000
     24 H3           4.2810    -2.3640     0.6000 ha         1 0KH       0.166000
     25 H4           4.0620    -4.7210    -0.1810 ha         1 0KH       0.100000
     26 H5           2.3280    -5.2910    -1.8990 ha         1 0KH       0.092000
     27 H6           0.8540    -3.5540    -2.7820 ha         1 0KH       0.118000
     28 H7          -0.6880    -2.2140    -2.7390 h1         1 0KH       0.033700
     29 H8           0.5820    -1.7300    -3.9860 h1         1 0KH       0.033700
     30 H9           1.4920     0.9980    -0.6250 ho         1 0KH       0.437000
     31 H10         -5.6960     3.8440    -2.7990 ha         1 0KH       0.109000
     32 H11         -6.2910     1.4470    -2.4620 ha         1 0KH       0.090000
     33 H12         -4.5600    -0.3060    -2.5320 ha         1 0KH       0.119000
@<TRIPOS>BOND
     1     1     2 1   
     2     1    30 1   
     3     2     3 1   
     4     2     4 1   
     5     2     5 1   
     6     5     6 ar  
     7     5    10 ar  
     8     6     7 ar  
     9     6    24 1   
    10     7     8 ar  
    11     7    25 1   
    12     8     9 ar  
    13     8    26 1   
    14     9    10 ar  
    15     9    27 1   
    16    10    11 1   
    17    11    12 1   
    18    12    13 1   
    19    12    28 1   
    20    12    29 1   
    21    13    14 1   
    22    13    15 2   
    23    15    16 1   
    24    16    17 ar  
    25    16    23 ar  
    26    17    18 1   
    27    17    19 ar  
    28    19    20 1   
    29    19    21 ar  
    30    21    22 ar  
    31    21    31 1   
    32    22    23 ar  
    33    22    32 1   
    34    23    33 1   
@<TRIPOS>SUBSTRUCTURE
     1 0KH         1 TEMP              0 ****  ****    0 ROOT
