@<TRIPOS>MOLECULE
molecule
   78    81     1     0     0
SMALL
bcc


@<TRIPOS>ATOM
      1 O28          0.0000     0.0000     0.0000 o          1 0KJ      -0.665500
      2 C27          1.2090     0.0000     0.0000 c          1 0KJ       0.708500
      3 N29          1.9810     0.0000     1.0720 ns         1 0KJ      -0.590900
      4 C24          3.3890     0.0230     0.7810 c3         1 0KJ       0.042700
      5 C25          3.4520    -0.2140    -0.7290 c3         1 0KJ      -0.096400
      6 C26          2.0390    -0.0280    -1.2580 c3         1 0KJ      -0.164400
      7 C22          3.9740     1.3640     1.1900 c3         1 0KJ       0.137400
      8 O23          3.2280     2.3610     0.4900 os         1 0KJ      -0.380900
      9 C21          3.9150     3.3000    -0.3790 c          1 0KJ       0.635100
     10 O22          5.1310     3.3720    -0.3100 o          1 0KJ      -0.445000
     11 N20          3.1400     3.9870    -1.2130 ny         1 0KJ      -0.639800
     12 C19          3.5990     4.9000    -2.2470 c3         1 0KJ       0.143500
     13 C32          3.0160     4.4450    -3.5880 c3         1 0KJ      -0.058100
     14 C38          3.4530     3.0280    -3.9290 ca         1 0KJ      -0.167300
     15 C37          2.4980     2.0260    -4.0510 ca         1 0KJ      -0.136000
     16 C36          2.8830     0.7250    -4.3680 ca         1 0KJ      -0.115000
     17 C35          4.2240     0.4220    -4.5710 ca         1 0KJ      -0.092000
     18 C34          5.1810     1.4240    -4.4520 ca         1 0KJ      -0.115000
     19 C33          4.7900     2.7230    -4.1390 ca         1 0KJ      -0.136000
     20 C17          3.2390     6.3360    -1.8570 c3         1 0KJ       0.100100
     21 O18          1.8300     6.5430    -1.9920 oh         1 0KJ      -0.608800
     22 C16          3.9640     7.4000    -2.6940 c3         1 0KJ       0.105800
     23 N11          5.4180     7.3450    -2.3850 nx         1 0KJ      -0.576300
     24 C12          5.8660     8.5240    -1.6080 c3         1 0KJ       0.120800
     25 C13          5.5670     8.3670    -0.1070 c3         1 0KJ      -0.079700
     26 C14          6.2820     7.1890     0.5560 c3         1 0KJ      -0.106100
     27 C15          5.9280     9.6720     0.6120 c3         1 0KJ      -0.079400
     28 C18          7.4030    10.0330     0.5180 c3         1 0KJ      -0.099100
     29 S8           6.3740     6.9970    -3.6570 sy         1 0KJ       1.553200
     30 O10          5.6910     6.0130    -4.4390 o          1 0KJ      -0.552300
     31 O9           7.6260     6.5480    -3.0940 o          1 0KJ      -0.552300
     32 C5           6.6750     8.3370    -4.5610 ca         1 0KJ      -0.611500
     33 C6           5.7830     8.6480    -5.5890 ca         1 0KJ      -0.028000
     34 C7           5.9360     9.8000    -6.3600 ca         1 0KJ      -0.081000
     35 C4           7.7460     9.2190    -4.3520 ca         1 0KJ       0.130000
     36 C3           7.9120    10.3760    -5.1320 ca         1 0KJ      -0.200100
     37 S1           9.1780    11.5170    -4.9640 ss         1 0KJ       0.170900
     38 C1           8.4310    12.3740    -6.2770 cc         1 0KJ       0.394100
     39 N1           7.3170    11.8140    -6.7750 nd         1 0KJ      -0.511100
     40 C2           6.9900    10.6630    -6.1410 ca         1 0KJ       0.211400
     41 H1           1.6190     0.1200     1.9980 hn         1 0KJ       0.327500
     42 H2           3.8890    -0.7830     1.3040 h1         1 0KJ       0.092700
     43 H3           4.1170     0.5070    -1.1890 hc         1 0KJ       0.085700
     44 H4           3.7930    -1.2230    -0.9300 hc         1 0KJ       0.085700
     45 H5           1.9530     0.9100    -1.7930 hc         1 0KJ       0.106200
     46 H6           1.7540    -0.8630    -1.8860 hc         1 0KJ       0.106200
     47 H7           5.0190     1.4150     0.9080 h1         1 0KJ       0.109700
     48 H8           3.8700     1.5040     2.2590 h1         1 0KJ       0.109700
     49 H9           2.5770     3.3060    -1.6830 hn         1 0KJ       0.490800
     50 H10          4.6780     4.8280    -2.3070 hx         1 0KJ       0.126700
     51 H11          1.9340     4.4790    -3.5340 hc         1 0KJ       0.100700
     52 H12          3.3530     5.1170    -4.3680 hc         1 0KJ       0.100700
     53 H13          1.4480     2.2640    -3.9320 ha         1 0KJ       0.139000
     54 H14          2.1340    -0.0520    -4.4600 ha         1 0KJ       0.159500
     55 H15          4.5230    -0.5900    -4.8160 ha         1 0KJ       0.165000
     56 H16          6.2220     1.2050    -4.6570 ha         1 0KJ       0.159500
     57 H17          5.5370     3.5050    -4.0670 ha         1 0KJ       0.139000
     58 H18          3.5070     6.4820    -0.8180 h1         1 0KJ       0.086700
     59 H19          1.5260     7.0970    -1.2920 ho         1 0KJ       0.448000
     60 H20          3.8100     7.2010    -3.7480 hx         1 0KJ       0.083700
     61 H21          3.5770     8.3810    -2.4490 hx         1 0KJ       0.083700
     62 H22          6.9330     8.6510    -1.7440 hx         1 0KJ       0.077200
     63 H23          5.3560     9.4050    -1.9790 hx         1 0KJ       0.077200
     64 H24          4.5010     8.2110     0.0040 hc         1 0KJ       0.038700
     65 H25          5.6220     6.3300     0.5740 hc         1 0KJ       0.046367
     66 H26          6.5540     7.4560     1.5700 hc         1 0KJ       0.046367
     67 H27          7.1760     6.9460    -0.0060 hc         1 0KJ       0.046367
     68 H28          5.3480    10.4770     0.1780 hc         1 0KJ       0.057700
     69 H29          5.6620     9.5770     1.6570 hc         1 0KJ       0.057700
     70 H30          7.7120    10.5270     1.4320 hc         1 0KJ       0.043700
     71 H31          7.9870     9.1320     0.3800 hc         1 0KJ       0.043700
     72 H32          7.5590    10.6980    -0.3220 hc         1 0KJ       0.043700
     73 H33          5.1700     8.0290    -6.2320 ha         1 0KJ       0.162000
     74 H34          5.2050    10.0430    -7.1210 ha         1 0KJ       0.197000
     75 H35          8.7440     8.9680    -4.0120 ha         1 0KJ       0.174000
     76 H36          8.8370    13.2990    -6.6680 h5         1 0KJ       0.106800
     77 H202         2.5210     4.5180    -0.6340 hn         1 0KJ       0.490800
     78 H111         5.5180     6.5870    -1.7400 hn         1 0KJ       0.418800
@<TRIPOS>BOND
     1     5     4 1   
     2     5     6 1   
     3     4     3 1   
     4     4     7 1   
     5    17    18 ar  
     6    17    16 ar  
     7    18    19 ar  
     8     3     2 1   
     9     6     2 1   
    10     7     8 1   
    11    16    15 ar  
    12     2     1 2   
    13    19    14 ar  
    14    10     9 2   
    15     8     9 1   
    16    15    14 ar  
    17     9    11 1   
    18    14    13 1   
    19    11    12 1   
    20    31    29 2   
    21    13    12 1   
    22    12    20 1   
    23    30    29 2   
    24    29    23 1   
    25    29    32 1   
    26    26    25 1   
    27    23    24 1   
    28    23    22 1   
    29    20    22 1   
    30    20    21 1   
    31    32    35 ar  
    32    32    33 ar  
    33    35    36 ar  
    34    25    24 1   
    35    25    27 1   
    36    33    34 ar  
    37    28    27 1   
    38    36    37 1   
    39    36    40 ar  
    40    37    38 1   
    41    34    40 ar  
    42    40    39 1   
    43    38    39 2   
    44     3    41 1   
    45     4    42 1   
    46     5    43 1   
    47     5    44 1   
    48     6    45 1   
    49     6    46 1   
    50     7    47 1   
    51     7    48 1   
    52    11    49 1   
    53    12    50 1   
    54    13    51 1   
    55    13    52 1   
    56    15    53 1   
    57    16    54 1   
    58    17    55 1   
    59    18    56 1   
    60    19    57 1   
    61    20    58 1   
    62    21    59 1   
    63    22    60 1   
    64    22    61 1   
    65    24    62 1   
    66    24    63 1   
    67    25    64 1   
    68    26    65 1   
    69    26    66 1   
    70    26    67 1   
    71    27    68 1   
    72    27    69 1   
    73    28    70 1   
    74    28    71 1   
    75    28    72 1   
    76    33    73 1   
    77    34    74 1   
    78    35    75 1   
    79    38    76 1   
    80    77    11 1   
    81    78    23 1   
@<TRIPOS>SUBSTRUCTURE
     1 0KJ         1 TEMP              0 ****  ****    0 ROOT
