@<TRIPOS>MOLECULE
molecule
   76    79     1     0     0
SMALL
bcc


@<TRIPOS>ATOM
      1 O28          0.0000     0.0000     0.0000 o          1 0KJ      -0.627500
      2 C27          1.2130     0.0000     0.0000 c          1 0KJ       0.699500
      3 N29          1.9840     0.0000     1.1020 ns         1 0KJ      -0.585900
      4 C24          3.4100    -0.0110     0.7550 c3         1 0KJ       0.100700
      5 C25          3.4760     0.4180    -0.7270 c3         1 0KJ      -0.092400
      6 C26          2.0790    -0.0070    -1.2410 c3         1 0KJ      -0.170400
      7 C22          4.1740     0.9850     1.6290 c3         1 0KJ       0.155400
      8 O23          4.1500     0.5350     3.0100 os         1 0KJ      -0.450900
      9 C21          4.7840     1.3050     3.9150 c          1 0KJ       0.748100
     10 O22          5.3410     2.3250     3.5600 o          1 0KJ      -0.596000
     11 N20          4.8000     0.9450     5.2130 ns         1 0KJ      -0.566900
     12 C19          5.4880     1.7820     6.1970 c3         1 0KJ       0.124700
     13 C32          4.5480     2.8930     6.6690 c3         1 0KJ      -0.047100
     14 C38          4.2340     3.8100     5.5150 ca         1 0KJ      -0.070300
     15 C37          3.1460     3.5510     4.7020 ca         1 0KJ      -0.117500
     16 C36          2.8590     4.3910     3.6430 ca         1 0KJ      -0.121500
     17 C35          3.6600     5.4920     3.3970 ca         1 0KJ      -0.126000
     18 C34          4.7480     5.7510     4.2090 ca         1 0KJ      -0.121500
     19 C33          5.0320     4.9130     5.2730 ca         1 0KJ      -0.117500
     20 C17          5.9060     0.9250     7.3940 c3         1 0KJ       0.107100
     21 O18          4.7390     0.4390     8.0610 oh         1 0KJ      -0.573800
     22 C16          6.7330     1.7710     8.3640 c3         1 0KJ       0.237800
     23 N11          7.2330     0.9220     9.4490 n3         1 0KJ      -0.813500
     24 C12          8.4740     0.1640     9.2730 c3         1 0KJ       0.228800
     25 C13          9.6520     1.1330     9.1680 c3         1 0KJ      -0.096700
     26 C14          9.8100     1.8910    10.4870 c3         1 0KJ      -0.097100
     27 C15         10.9330     0.3480     8.8750 c3         1 0KJ      -0.079400
     28 C18         12.0890     1.3240     8.6460 c3         1 0KJ      -0.091100
     29 S8           6.3940     0.8200    10.8730 sy         1 0KJ       1.420200
     30 O10          5.0270     1.0330    10.5510 o          1 0KJ      -0.622300
     31 O9           6.8660    -0.3460    11.5340 o          1 0KJ      -0.622300
     32 C5           6.8880     2.1880    11.8680 ca         1 0KJ      -0.309500
     33 C6           7.8870     2.0300    12.8180 ca         1 0KJ      -0.042000
     34 C7           8.2820     3.0750    13.5960 ca         1 0KJ      -0.094000
     35 C4           6.2870     3.4150    11.6980 ca         1 0KJ       0.027000
     36 C3           6.6780     4.4970    12.4850 ca         1 0KJ      -0.092100
     37 S1           6.1320     6.1700    12.5300 ss         1 0KJ      -0.086100
     38 C1           7.2380     6.5230    13.7810 cc         1 0KJ       0.418100
     39 N1           7.9230     5.4910    14.1070 nd         1 0KJ      -0.583100
     40 C2           7.6800     4.3420    13.4480 ca         1 0KJ       0.164400
     41 H1           1.6300     0.0060     2.0380 hn         1 0KJ       0.346500
     42 H2           3.8140    -1.0090     0.8720 h1         1 0KJ       0.064700
     43 H3           3.6090     1.4900    -0.8120 hc         1 0KJ       0.062700
     44 H4           4.2580    -0.1190    -1.2490 hc         1 0KJ       0.062700
     45 H5           2.1200    -1.0010    -1.6680 hc         1 0KJ       0.079200
     46 H6           1.7080     0.7100    -1.9640 hc         1 0KJ       0.079200
     47 H7           3.7060     1.9600     1.5590 h1         1 0KJ       0.063200
     48 H8           5.2000     1.0520     1.2890 h1         1 0KJ       0.063200
     49 H9           4.3830     0.0800     5.4970 hn         1 0KJ       0.321500
     50 H10          6.3680     2.2230     5.7440 h1         1 0KJ       0.083700
     51 H11          5.0250     3.4590     7.4600 hc         1 0KJ       0.064200
     52 H12          3.6300     2.4550     7.0420 hc         1 0KJ       0.064200
     53 H13          2.5190     2.6890     4.8950 ha         1 0KJ       0.123500
     54 H14          2.0070     4.1880     3.0070 ha         1 0KJ       0.125000
     55 H15          3.4360     6.1490     2.5660 ha         1 0KJ       0.124000
     56 H16          5.3740     6.6140     4.0180 ha         1 0KJ       0.125000
     57 H17          5.8840     5.1160     5.9090 ha         1 0KJ       0.123500
     58 H18          6.5000     0.0870     7.0480 h1         1 0KJ       0.043700
     59 H19          4.6530    -0.4880     7.9100 ho         1 0KJ       0.400000
     60 H20          6.1120     2.5560     8.7770 h1         1 0KJ       0.065200
     61 H21          7.5690     2.2120     7.8350 h1         1 0KJ       0.065200
     62 H22          8.4110    -0.4280     8.3680 h1         1 0KJ       0.064200
     63 H23          8.6200    -0.4910    10.1230 h1         1 0KJ       0.064200
     64 H24          9.4690     1.8390     8.3670 hc         1 0KJ       0.052700
     65 H25          9.4110     1.2920    11.2980 hc         1 0KJ       0.039367
     66 H26         10.8590     2.0890    10.6670 hc         1 0KJ       0.039367
     67 H27          9.2700     2.8280    10.4320 hc         1 0KJ       0.039367
     68 H28         11.1640    -0.2940     9.7170 hc         1 0KJ       0.043200
     69 H29         10.7900    -0.2570     7.9880 hc         1 0KJ       0.043200
     70 H30         12.6000     1.5050     9.5830 hc         1 0KJ       0.035700
     71 H31         12.7830     0.9000     7.9310 hc         1 0KJ       0.035700
     72 H32         11.7010     2.2600     8.2600 hc         1 0KJ       0.035700
     73 H33          8.3620     1.0630    12.9390 ha         1 0KJ       0.159000
     74 H34          9.0630     2.9330    14.3330 ha         1 0KJ       0.153000
     75 H35          5.4910     3.5320    10.9720 ha         1 0KJ       0.154000
     76 H36          7.3470     7.4970    14.2420 h5         1 0KJ       0.073800
@<TRIPOS>BOND
     1     5     4 1   
     2     5     6 1   
     3     4     3 1   
     4     4     7 1   
     5    17    18 ar  
     6    17    16 ar  
     7    18    19 ar  
     8     3     2 1   
     9     6     2 1   
    10     7     8 1   
    11    16    15 ar  
    12     2     1 2   
    13    19    14 ar  
    14    10     9 2   
    15     8     9 1   
    16    15    14 ar  
    17     9    11 1   
    18    14    13 1   
    19    11    12 1   
    20    31    29 2   
    21    13    12 1   
    22    12    20 1   
    23    30    29 2   
    24    29    23 1   
    25    29    32 1   
    26    26    25 1   
    27    23    24 1   
    28    23    22 1   
    29    20    22 1   
    30    20    21 1   
    31    32    35 ar  
    32    32    33 ar  
    33    35    36 ar  
    34    25    24 1   
    35    25    27 1   
    36    33    34 ar  
    37    28    27 1   
    38    36    37 1   
    39    36    40 ar  
    40    37    38 1   
    41    34    40 ar  
    42    40    39 1   
    43    38    39 2   
    44     3    41 1   
    45     4    42 1   
    46     5    43 1   
    47     5    44 1   
    48     6    45 1   
    49     6    46 1   
    50     7    47 1   
    51     7    48 1   
    52    11    49 1   
    53    12    50 1   
    54    13    51 1   
    55    13    52 1   
    56    15    53 1   
    57    16    54 1   
    58    17    55 1   
    59    18    56 1   
    60    19    57 1   
    61    20    58 1   
    62    21    59 1   
    63    22    60 1   
    64    22    61 1   
    65    24    62 1   
    66    24    63 1   
    67    25    64 1   
    68    26    65 1   
    69    26    66 1   
    70    26    67 1   
    71    27    68 1   
    72    27    69 1   
    73    28    70 1   
    74    28    71 1   
    75    28    72 1   
    76    33    73 1   
    77    34    74 1   
    78    35    75 1   
    79    38    76 1   
@<TRIPOS>SUBSTRUCTURE
     1 0KJ         1 TEMP              0 ****  ****    0 ROOT
