@<TRIPOS>MOLECULE
0KJ
   76    79     1     0     0
SMALL
bcc


@<TRIPOS>ATOM
      1 O28          0.0000     0.0000     0.0000 o          1 0KJ      -0.667500
      2 C27          1.2130     0.0000     0.0000 c          1 0KJ       0.619500
      3 N29          1.9840     0.0000     1.1020 ns         1 0KJ      -0.201900
      4 C24          3.4100    -0.0110     0.7550 c3         1 0KJ       0.001700
      5 C25          3.4760     0.4180    -0.7270 c3         1 0KJ      -0.026400
      6 C26          2.0790    -0.0070    -1.2410 c3         1 0KJ      -0.110400
      7 C22          4.1740     0.9850     1.6290 c3         1 0KJ       0.227400
      8 O23          4.1500     0.5350     3.0100 os         1 0KJ      -0.433900
      9 C21          4.7840     1.3050     3.9150 c          1 0KJ       0.678100
     10 O22          5.3410     2.3250     3.5600 o          1 0KJ      -0.645000
     11 N20          4.8000     0.9450     5.2130 ns         1 0KJ      -0.162900
     12 C19          5.4880     1.7820     6.1970 c3         1 0KJ       0.011700
     13 C32          4.5480     2.8930     6.6690 c3         1 0KJ       0.011900
     14 C38          4.2340     3.8100     5.5150 ca         1 0KJ      -0.078300
     15 C37          3.1460     3.5510     4.7020 ca         1 0KJ      -0.093000
     16 C36          2.8590     4.3910     3.6430 ca         1 0KJ      -0.092500
     17 C35          3.6600     5.4920     3.3970 ca         1 0KJ      -0.099000
     18 C34          4.7480     5.7510     4.2090 ca         1 0KJ      -0.092500
     19 C33          5.0320     4.9130     5.2730 ca         1 0KJ      -0.093000
     20 C17          5.9060     0.9250     7.3940 c3         1 0KJ       0.146100
     21 O18          4.7390     0.4390     8.0610 oh         1 0KJ      -0.547800
     22 C16          6.7330     1.7710     8.3640 c3         1 0KJ       0.220800
     23 N11          7.2330     0.9220     9.4490 n3         1 0KJ      -0.524500
     24 C12          8.4740     0.1640     9.2730 c3         1 0KJ       0.220800
     25 C13          9.6520     1.1330     9.1680 c3         1 0KJ      -0.080700
     26 C14          9.8100     1.8910    10.4870 c3         1 0KJ      -0.032100
     27 C15         10.9330     0.3480     8.8750 c3         1 0KJ      -0.020400
     28 C18         12.0890     1.3240     8.6460 c3         1 0KJ       0.001900
     29 S8           6.3940     0.8200    10.8730 sy         1 0KJ       1.048200
     30 O10          5.0270     1.0330    10.5510 o          1 0KJ      -0.574300
     31 O9           6.8660    -0.3460    11.5340 o          1 0KJ      -0.574300
     32 C5           6.8880     2.1880    11.8680 ca         1 0KJ      -0.155500
     33 C6           7.8870     2.0300    12.8180 ca         1 0KJ      -0.012000
     34 C7           8.2820     3.0750    13.5960 ca         1 0KJ      -0.072000
     35 C4           6.2870     3.4150    11.6980 ca         1 0KJ       0.071000
     36 C3           6.6780     4.4970    12.4850 ca         1 0KJ      -0.065100
     37 S1           6.1320     6.1700    12.5300 ss         1 0KJ      -0.183100
     38 C1           7.2380     6.5230    13.7810 cc         1 0KJ       0.436100
     39 N1           7.9230     5.4910    14.1070 nd         1 0KJ      -0.458100
     40 C2           7.6800     4.3420    13.4480 ca         1 0KJ       0.113400
     41 H1           1.6300     0.0060     2.0380 hn         1 0KJ       0.201500
     42 H2           3.8140    -1.0090     0.8720 h1         1 0KJ       0.034700
     43 H3           3.6090     1.4900    -0.8120 hc         1 0KJ       0.029700
     44 H4           4.2580    -0.1190    -1.2490 hc         1 0KJ       0.029700
     45 H5           2.1200    -1.0010    -1.6680 hc         1 0KJ       0.043700
     46 H6           1.7080     0.7100    -1.9640 hc         1 0KJ       0.043700
     47 H7           3.7060     1.9600     1.5590 h1         1 0KJ       0.023700
     48 H8           5.2000     1.0520     1.2890 h1         1 0KJ       0.023700
     49 H9           4.3830     0.0800     5.4970 hn         1 0KJ       0.173500
     50 H10          6.3680     2.2230     5.7440 h1         1 0KJ       0.061700
     51 H11          5.0250     3.4590     7.4600 hc         1 0KJ       0.036200
     52 H12          3.6300     2.4550     7.0420 hc         1 0KJ       0.036200
     53 H13          2.5190     2.6890     4.8950 ha         1 0KJ       0.098500
     54 H14          2.0070     4.1880     3.0070 ha         1 0KJ       0.098000
     55 H15          3.4360     6.1490     2.5660 ha         1 0KJ       0.098000
     56 H16          5.3740     6.6140     4.0180 ha         1 0KJ       0.098000
     57 H17          5.8840     5.1160     5.9090 ha         1 0KJ       0.098500
     58 H18          6.5000     0.0870     7.0480 h1         1 0KJ       0.007700
     59 H19          4.6530    -0.4880     7.9100 ho         1 0KJ       0.385000
     60 H20          6.1120     2.5560     8.7770 h1         1 0KJ       0.033200
     61 H21          7.5690     2.2120     7.8350 h1         1 0KJ       0.033200
     62 H22          8.4110    -0.4280     8.3680 h1         1 0KJ       0.033200
     63 H23          8.6200    -0.4910    10.1230 h1         1 0KJ       0.033200
     64 H24          9.4690     1.8390     8.3670 hc         1 0KJ       0.032700
     65 H25          9.4110     1.2920    11.2980 hc         1 0KJ       0.014033
     66 H26         10.8590     2.0890    10.6670 hc         1 0KJ       0.014033
     67 H27          9.2700     2.8280    10.4320 hc         1 0KJ       0.014033
     68 H28         11.1640    -0.2940     9.7170 hc         1 0KJ       0.015200
     69 H29         10.7900    -0.2570     7.9880 hc         1 0KJ       0.015200
     70 H30         12.6000     1.5050     9.5830 hc         1 0KJ       0.004033
     71 H31         12.7830     0.9000     7.9310 hc         1 0KJ       0.004033
     72 H32         11.7010     2.2600     8.2600 hc         1 0KJ       0.004033
     73 H33          8.3620     1.0630    12.9390 ha         1 0KJ       0.134000
     74 H34          9.0630     2.9330    14.3330 ha         1 0KJ       0.120000
     75 H35          5.4910     3.5320    10.9720 ha         1 0KJ       0.129000
     76 H36          7.3470     7.4970    14.2420 h5         1 0KJ       0.031800
@<TRIPOS>BOND
     1     1     2 2   
     2     2     3 1   
     3     2     6 1   
     4     3     4 1   
     5     3    41 1   
     6     4     5 1   
     7     4     7 1   
     8     4    42 1   
     9     5     6 1   
    10     5    43 1   
    11     5    44 1   
    12     6    45 1   
    13     6    46 1   
    14     7     8 1   
    15     7    47 1   
    16     7    48 1   
    17     8     9 1   
    18     9    10 2   
    19     9    11 1   
    20    11    12 1   
    21    11    49 1   
    22    12    13 1   
    23    12    20 1   
    24    12    50 1   
    25    13    14 1   
    26    13    51 1   
    27    13    52 1   
    28    14    15 ar  
    29    14    19 ar  
    30    15    16 ar  
    31    15    53 1   
    32    16    17 ar  
    33    16    54 1   
    34    17    18 ar  
    35    17    55 1   
    36    18    19 ar  
    37    18    56 1   
    38    19    57 1   
    39    20    21 1   
    40    20    22 1   
    41    20    58 1   
    42    21    59 1   
    43    22    23 1   
    44    22    60 1   
    45    22    61 1   
    46    23    24 1   
    47    23    29 1   
    48    24    25 1   
    49    24    62 1   
    50    24    63 1   
    51    25    26 1   
    52    25    27 1   
    53    25    64 1   
    54    26    65 1   
    55    26    66 1   
    56    26    67 1   
    57    27    28 1   
    58    27    68 1   
    59    27    69 1   
    60    28    70 1   
    61    28    71 1   
    62    28    72 1   
    63    29    30 2   
    64    29    31 2   
    65    29    32 1   
    66    32    33 ar  
    67    32    35 ar  
    68    33    34 ar  
    69    33    73 1   
    70    34    40 ar  
    71    34    74 1   
    72    35    36 ar  
    73    35    75 1   
    74    36    37 1   
    75    36    40 ar  
    76    37    38 1   
    77    38    39 2   
    78    38    76 1   
    79    39    40 1   
@<TRIPOS>SUBSTRUCTURE
     1 0KJ         1 TEMP              0 ****  ****    0 ROOT
