@<TRIPOS>MOLECULE
0KK
   35    37     1     0     0
SMALL
bcc


@<TRIPOS>ATOM
      1 O1           0.0100    -0.0180    -0.0180 o          1 0KK      -0.592500
      2 C1           1.2440     0.0090    -0.0210 c          1 0KK       0.706500
      3 C2           2.2100    -0.0280     1.2160 c3         1 0KK       0.227800
      4 N1           3.5630    -0.1190     0.6030 nu         1 0KK      -0.764200
      5 C3           3.4410     0.0770    -0.8260 c2         1 0KK       0.627800
      6 N2           2.0360     0.0960    -1.1720 n          1 0KK      -0.453300
      7 N3           4.4680     0.1800    -1.6130 n2         1 0KK      -0.825100
      8 C4           1.5650    -0.0350    -2.5110 c3         1 0KK       0.085300
      9 C5           2.0670     1.2150     2.0720 ca         1 0KK      -0.101300
     10 C6           2.9570     1.3870     3.1420 ca         1 0KK      -0.106750
     11 C7           2.8750     2.5180     3.9500 ca         1 0KK      -0.133500
     12 C8           1.9010     3.4860     3.7010 ca         1 0KK      -0.118000
     13 C9           1.0080     3.3140     2.6460 ca         1 0KK      -0.133500
     14 C10          1.0890     2.1830     1.8320 ca         1 0KK      -0.106750
     15 C11          1.8690    -1.2470     2.0500 ca         1 0KK      -0.101300
     16 C12          0.5610    -1.3570     2.5470 ca         1 0KK      -0.106750
     17 C13          0.1990    -2.4450     3.3370 ca         1 0KK      -0.133500
     18 C14          1.1360    -3.4330     3.6410 ca         1 0KK      -0.118000
     19 C15          2.4340    -3.3280     3.1480 ca         1 0KK      -0.133500
     20 C16          2.8040    -2.2400     2.3550 ca         1 0KK      -0.106750
     21 H1           4.2590     0.2370    -2.5870 hn         1 0KK       0.403400
     22 H3           1.8940     0.8510    -3.1190 h1         1 0KK       0.053367
     23 H4           1.9680    -0.9700    -2.9870 h1         1 0KK       0.053367
     24 H5           0.4430    -0.0800    -2.5010 h1         1 0KK       0.053367
     25 H6           3.7130     0.6150     3.3580 ha         1 0KK       0.149000
     26 H7           3.5770     2.6450     4.7880 ha         1 0KK       0.135500
     27 H8           1.8370     4.3800     4.3400 ha         1 0KK       0.134000
     28 H9           0.2340     4.0700     2.4490 ha         1 0KK       0.135500
     29 H10          0.3640     2.0600     1.0100 ha         1 0KK       0.149000
     30 H11         -0.1820    -0.5830     2.2960 ha         1 0KK       0.149000
     31 H12         -0.8300    -2.5230     3.7190 ha         1 0KK       0.135500
     32 H13          0.8490    -4.2910     4.2660 ha         1 0KK       0.134000
     33 H14          3.1760    -4.1060     3.3820 ha         1 0KK       0.135500
     34 H15          3.8360    -2.1880     1.9760 ha         1 0KK       0.149000
     35 H16          4.2410     0.4810     1.0310 hn         1 0KK       0.421800
@<TRIPOS>BOND
     1     1     2 2   
     2     2     3 1   
     3     2     6 1   
     4     3     4 1   
     5     3     9 1   
     6     3    15 1   
     7     4     5 1   
     8     4    35 1   
     9     5     6 1   
    10     5     7 2   
    11     6     8 1   
    12     7    21 1   
    13     8    22 1   
    14     8    23 1   
    15     8    24 1   
    16     9    10 ar  
    17     9    14 ar  
    18    10    11 ar  
    19    10    25 1   
    20    11    12 ar  
    21    11    26 1   
    22    12    13 ar  
    23    12    27 1   
    24    13    14 ar  
    25    13    28 1   
    26    14    29 1   
    27    15    16 ar  
    28    15    20 ar  
    29    16    17 ar  
    30    16    30 1   
    31    17    18 ar  
    32    17    31 1   
    33    18    19 ar  
    34    18    32 1   
    35    19    20 ar  
    36    19    33 1   
    37    20    34 1   
@<TRIPOS>SUBSTRUCTURE
     1 0KK         1 TEMP              0 ****  ****    0 ROOT
