@<TRIPOS>MOLECULE
molecule
   35    37     1     0     0
SMALL
bcc


@<TRIPOS>ATOM
      1 O1           0.0000     0.0000     0.0000 o          1 0KK      -0.597500
      2 C1           1.2130     0.0000     0.0000 c          1 0KK       0.721500
      3 C2           2.1180     0.0000     1.2130 c3         1 0KK       0.254800
      4 N1           3.4800    -0.0010     0.6530 nu         1 0KK      -0.881200
      5 C3           3.3410    -0.0020    -0.7130 c2         1 0KK       0.698800
      6 N2           2.0180    -0.0060    -1.0800 n          1 0KK      -0.439300
      7 N3           4.3370    -0.0010    -1.5520 n2         1 0KK      -0.918100
      8 C4           1.5430    -0.0140    -2.4650 c3         1 0KK       0.101300
      9 C5           1.8910     1.2380     2.0410 ca         1 0KK      -0.096800
     10 C6           0.6020     1.6450     2.3340 ca         1 0KK      -0.107750
     11 C7           0.3930     2.7810     3.0930 ca         1 0KK      -0.127750
     12 C8           1.4720     3.5100     3.5590 ca         1 0KK      -0.119500
     13 C9           2.7590     3.1030     3.2650 ca         1 0KK      -0.127750
     14 C10          2.9690     1.9640     2.5110 ca         1 0KK      -0.107750
     15 C11          1.8890    -1.2380     2.0410 ca         1 0KK      -0.096800
     16 C12          2.9580    -2.0390     2.3980 ca         1 0KK      -0.107750
     17 C13          2.7470    -3.1740     3.1570 ca         1 0KK      -0.127750
     18 C14          1.4680    -3.5100     3.5590 ca         1 0KK      -0.119500
     19 C15          0.3980    -2.7100     3.2020 ca         1 0KK      -0.127750
     20 C16          0.6100    -1.5710     2.4470 ca         1 0KK      -0.107750
     21 H1           4.1610    -0.0020    -2.5380 hn         1 0KK       0.410400
     22 H3           0.4600    -0.0280    -2.4760 h1         1 0KK       0.055367
     23 H4           1.9200    -0.8950    -2.9710 h1         1 0KK       0.055367
     24 H5           1.8970     0.8740    -2.9740 h1         1 0KK       0.055367
     25 H6          -0.2430     1.0740     1.9690 ha         1 0KK       0.141750
     26 H7          -0.6160     3.1010     3.3240 ha         1 0KK       0.133000
     27 H8           1.3080     4.4020     4.1510 ha         1 0KK       0.131000
     28 H9           3.6040     3.6730     3.6320 ha         1 0KK       0.133000
     29 H10          3.9780     1.6450     2.2810 ha         1 0KK       0.141750
     30 H11          3.9610    -1.7760     2.0830 ha         1 0KK       0.141750
     31 H12          3.5850    -3.8020     3.4370 ha         1 0KK       0.133000
     32 H13          1.3030    -4.4020     4.1520 ha         1 0KK       0.131000
     33 H14         -0.6040    -2.9710     3.5180 ha         1 0KK       0.133000
     34 H15         -0.2270    -0.9430     2.1670 ha         1 0KK       0.141750
     35 H16          4.3380    -0.0020     1.1670 hn         1 0KK       0.492800
@<TRIPOS>BOND
     1    18    17 ar  
     2    18    19 ar  
     3    17    16 ar  
     4    19    20 ar  
     5    16    15 ar  
     6    11    10 ar  
     7    11    12 ar  
     8    20    15 ar  
     9    10     9 ar  
    10    15     3 1   
    11    12    13 ar  
    12     9     3 1   
    13     9    14 ar  
    14    13    14 ar  
    15     3     4 1   
    16     3     2 1   
    17     4     5 1   
    18     1     2 2   
    19     2     6 1   
    20     5     6 1   
    21     5     7 2   
    22     6     8 1   
    23     7    21 1   
    24     8    22 1   
    25     8    23 1   
    26     8    24 1   
    27    10    25 1   
    28    11    26 1   
    29    12    27 1   
    30    13    28 1   
    31    14    29 1   
    32    16    30 1   
    33    17    31 1   
    34    18    32 1   
    35    19    33 1   
    36    20    34 1   
    37     4    35 1   
@<TRIPOS>SUBSTRUCTURE
     1 0KK         1 TEMP              0 ****  ****    0 ROOT
