@<TRIPOS>MOLECULE
0KL
   53    54     1     0     0
SMALL
bcc


@<TRIPOS>ATOM
      1 O3G          1.8100    -0.5490     1.9720 o          1 0KL      -0.919500
      2 PG           2.7500     0.3300     1.2210 p5         1 0KL       1.410900
      3 O2G          3.6430     1.2310     2.0180 o          1 0KL      -0.919500
      4 O1G          3.3170    -0.2260    -0.0430 o          1 0KL      -0.919500
      5 O3B          1.6810     1.7620     0.5770 os         1 0KL      -0.786800
      6 PB           1.2650     3.1590     0.1810 p5         1 0KL       1.883500
      7 O1B          2.2890     4.0780     1.0300 oh         1 0KL      -0.834400
      8 O2B          1.2030     3.6190    -1.2210 o          1 0KL      -0.956300
      9 O3A         -0.1470     3.6170     0.8360 os         1 0KL      -0.824800
     10 PA          -1.5200     4.2650     1.4090 p5         1 0KL       1.614800
     11 O1A         -1.3270     4.8130     2.7630 o          1 0KL      -0.874000
     12 O2A         -2.7080     3.4880     1.0090 o          1 0KL      -0.874000
     13 O5'         -1.5270     5.6170     0.3980 os         1 0KL      -0.601200
     14 C5'         -2.4250     5.6160    -0.6560 c3         1 0KL       0.186400
     15 C4'         -1.8290     6.1460    -1.9660 c3         1 0KL       0.089100
     16 C3'         -0.3340     5.8630    -2.2000 c3         1 0KL       0.134100
     17 O3'         -0.1880     4.9770    -3.2890 oh         1 0KL      -0.651800
     18 C2'          0.2770     7.2230    -2.5730 c3         1 0KL      -0.134400
     19 O4'         -2.0360     7.5770    -2.0530 os         1 0KL      -0.437600
     20 C1'         -0.8050     8.2700    -2.2410 c3         1 0KL       0.306500
     21 N1          -0.4810     9.0770    -1.0510 n          1 0KL      -0.367000
     22 C2          -0.4570    10.4820    -1.1390 c          1 0KL       0.802500
     23 O2          -0.6980    11.1070    -2.2040 o          1 0KL      -0.707500
     24 N3          -0.1220    11.2130     0.0130 ns         1 0KL      -0.602500
     25 C6          -0.2350     8.4580     0.1600 cc         1 0KL       0.083600
     26 C5           0.1270     9.1550     1.2930 cd         1 0KL      -0.117900
     27 C4           0.1890    10.6180     1.2580 c          1 0KL       0.728700
     28 O4           0.4740    11.3950     2.1900 o          1 0KL      -0.661500
     29 C29          0.4230     8.4270     2.4480 ch         1 0KL      -0.212300
     30 C30          0.6390     7.6400     3.3270 c1         1 0KL      -0.039100
     31 C31          0.8130     6.6040     4.3000 c3         1 0KL      -0.039300
     32 C32          2.1010     5.8200     4.1310 c3         1 0KL      -0.122400
     33 C33          3.3500     6.6050     4.5210 c3         1 0KL       0.150800
     34 N34          3.7640     7.6680     3.6350 n8         1 0KL      -0.919800
     35 H5          -3.2990     6.2870    -0.4030 h1         1 0KL       0.036200
     36 H6          -2.8030     4.5690    -0.8440 h1         1 0KL       0.036200
     37 H7          -2.4340     5.7300    -2.8220 h1         1 0KL       0.049700
     38 H8           0.1530     5.4320    -1.2750 h1         1 0KL       0.149700
     39 H9           0.3130     4.2110    -2.9500 ho         1 0KL       0.481000
     40 H10          0.4960     7.2620    -3.6680 hc         1 0KL       0.062700
     41 H11          1.2310     7.3870    -2.0170 hc         1 0KL       0.062700
     42 H12         -0.9840     8.9970    -3.0870 h2         1 0KL       0.084700
     43 H13         -0.1090    12.2030    -0.0710 hn         1 0KL       0.322500
     44 H14         -0.3560     7.3410     0.1690 h4         1 0KL       0.262000
     45 H15         -0.0560     5.8780     4.1470 hc         1 0KL       0.094700
     46 H16          0.7520     7.0320     5.3370 hc         1 0KL       0.094700
     47 H17          2.1800     5.4460     3.0710 hc         1 0KL       0.084200
     48 H18          2.0400     4.9100     4.7860 hc         1 0KL       0.084200
     49 H19          4.2090     5.8780     4.6020 h1         1 0KL       0.027200
     50 H20          3.1930     7.0600     5.5410 h1         1 0KL       0.027200
     51 H21          2.8600     3.5750     1.6140 ho         1 0KL       0.481000
     52 H22          3.9980     7.2840     2.7370 hn         1 0KL       0.346800
     53 H343         3.0030     8.3100     3.4960 hn         1 0KL       0.346800
@<TRIPOS>BOND
     1     1     2 1   
     2     2     3 1   
     3     2     4 1   
     4     2     5 1   
     5     5     6 1   
     6     6     7 1   
     7     6     8 2   
     8     6     9 1   
     9     7    51 1   
    10     9    10 1   
    11    10    11 1   
    12    10    12 1   
    13    10    13 1   
    14    13    14 1   
    15    14    15 1   
    16    14    35 1   
    17    14    36 1   
    18    15    16 1   
    19    15    19 1   
    20    15    37 1   
    21    16    17 1   
    22    16    18 1   
    23    16    38 1   
    24    17    39 1   
    25    18    20 1   
    26    18    40 1   
    27    18    41 1   
    28    19    20 1   
    29    20    21 1   
    30    20    42 1   
    31    21    22 1   
    32    21    25 1   
    33    22    23 2   
    34    22    24 1   
    35    24    27 1   
    36    24    43 1   
    37    25    26 2   
    38    25    44 1   
    39    26    27 1   
    40    26    29 1   
    41    27    28 2   
    42    29    30 3   
    43    30    31 1   
    44    31    32 1   
    45    31    45 1   
    46    31    46 1   
    47    32    33 1   
    48    32    47 1   
    49    32    48 1   
    50    33    34 1   
    51    33    49 1   
    52    33    50 1   
    53    34    52 1   
    54    34    53 1   
@<TRIPOS>SUBSTRUCTURE
     1 0KL         1 TEMP              0 ****  ****    0 ROOT
