@<TRIPOS>MOLECULE
molecule
   53    54     1     0     0
SMALL
bcc


@<TRIPOS>ATOM
      1 O3G          0.0000     0.0000     0.0000 o          1 0KL      -0.673833
      2 PG           1.6100     0.0000     0.0000 p5         1 0KL       1.304900
      3 O2G          2.1460     0.0000     1.5180 o          1 0KL      -0.673833
      4 O1G          2.1020    -1.2090    -0.6960 o          1 0KL      -0.673833
      5 O3B          2.1480     1.3130    -0.7600 os         1 0KL      -0.722800
      6 PB           3.5470     1.7130    -1.4480 p5         1 0KL       1.543800
      7 O1B          4.6330     2.0390    -0.3060 o          1 0KL      -0.775000
      8 O2B          4.0280     0.5860    -2.2790 o          1 0KL      -0.775000
      9 O3A          3.3360     3.0120    -2.3760 os         1 0KL      -0.725800
     10 PA           4.1590     3.6560    -3.6000 p5         1 0KL       1.445800
     11 O1A          3.8140     2.8600    -4.9570 o          1 0KL      -0.844500
     12 O2A          5.6100     3.5590    -3.3260 o          1 0KL      -0.844500
     13 O5'          3.7470     5.2040    -3.7680 os         1 0KL      -0.592200
     14 C5'          4.3790     6.0810    -4.7030 c3         1 0KL       0.216400
     15 C4'          3.7510     7.4720    -4.6030 c3         1 0KL       0.136100
     16 C3'          4.3310     8.4040    -5.6890 c3         1 0KL       0.111100
     17 O3'          3.4450     8.4810    -6.8090 oh         1 0KL      -0.605800
     18 C2'          4.4390     9.7770    -4.9880 c3         1 0KL      -0.151400
     19 O4'          4.1090     8.0970    -3.3510 os         1 0KL      -0.352600
     20 C1'          3.9100     9.5110    -3.5610 c3         1 0KL       0.311500
     21 N1           4.6770    10.2860    -2.5810 n          1 0KL      -0.349000
     22 C2           5.9790    10.0140    -2.4040 c          1 0KL       0.801500
     23 O2           6.4940     9.1310    -3.0630 o          1 0KL      -0.599500
     24 N3           6.7320    10.6910    -1.5200 ns         1 0KL      -0.563500
     25 C6           4.0530    11.2710    -1.8730 cc         1 0KL       0.065600
     26 C5           4.7650    11.9940    -0.9590 cd         1 0KL      -0.150900
     27 C4           6.1890    11.6780    -0.7760 c          1 0KL       0.718700
     28 O4           6.8650    12.2940     0.0260 o          1 0KL      -0.634500
     29 C29          4.1400    13.0350    -0.1990 ch         1 0KL      -0.124300
     30 C30          3.6320    13.9020     0.4090 c1         1 0KL      -0.153100
     31 C31          3.1430    14.7760     1.6230 c3         1 0KL       0.032700
     32 C32          4.1800    15.1700     2.6030 c3         1 0KL      -0.081400
     33 C33          3.7660    16.0380     3.6810 c3         1 0KL       0.034800
     34 N34          4.8870    16.6780     4.4050 nz         1 0KL      -0.809600
     35 H5           5.2650     6.5110    -4.2520 h1         1 0KL       0.047700
     36 H6           4.6600     5.5230    -5.5890 h1         1 0KL       0.047700
     37 H7           2.6730     7.4130    -4.6970 h1         1 0KL       0.066700
     38 H8           5.3110     8.0600    -5.9970 h1         1 0KL       0.062700
     39 H9           3.9410     8.4020    -7.6070 ho         1 0KL       0.394000
     40 H10          3.8210    10.5060    -5.4980 hc         1 0KL       0.055700
     41 H11          5.4720    10.1030    -4.9630 hc         1 0KL       0.055700
     42 H12          2.8560     9.7550    -3.5010 h2         1 0KL       0.064700
     43 H13          7.7020    10.4670    -1.4090 hn         1 0KL       0.361500
     44 H14          3.0020    11.4660    -2.0450 h4         1 0KL       0.165000
     45 H15          2.3770    14.2200     2.1500 hc         1 0KL       0.035200
     46 H16          2.6940    15.6790     1.2270 hc         1 0KL       0.035200
     47 H17          4.9760    15.6680     2.0630 hc         1 0KL       0.039700
     48 H18          4.5850    14.2660     3.0410 hc         1 0KL       0.039700
     49 H19          3.1870    15.4560     4.3880 hx         1 0KL       0.014200
     50 H20          3.1320    16.8160     3.2730 hx         1 0KL       0.014200
     51 H21          4.5310    17.1890     5.1880 hn         1 0KL       0.218467
     52 H22          5.5210    15.9740     4.7270 hn         1 0KL       0.218467
     53 H343         5.3680    17.3030     3.7890 hn         1 0KL       0.218467
@<TRIPOS>BOND
     1     4     2 1
     2     1     2 1
     3     2     3 1
     4     2     5 1
     5     8     6 1
     6    11    10 1
     7     5     6 1
     8     6     7 1
     9     6     9 1
    10    14    13 1
    11    14    15 1
    12    10     9 1
    13    10    13 1
    14    10    12 1
    15    17    16 1
    16    15    16 1
    17    15    19 1
    18    16    18 1
    19    19    20 1
    20    18    20 1
    21    20    21 1
    22    25    21 1
    23    25    26 2
    24    21    22 1
    25    31    30 1
    26    31    32 1
    27    30    29 3
    28    29    26 1
    29    26    27 1
    30    32    33 1
    31    22    23 2
    32    22    24 1
    33    27    24 1
    34    27    28 2
    35    33    34 1
    36    14    35 1
    37    14    36 1
    38    15    37 1
    39    16    38 1
    40    17    39 1
    41    18    40 1
    42    18    41 1
    43    20    42 1
    44    24    43 1
    45    25    44 1
    46    31    45 1
    47    31    46 1
    48    32    47 1
    49    32    48 1
    50    33    49 1
    51    33    50 1
    52    34    51 1
    53    34    52 1
    54    53    34 1
@<TRIPOS>SUBSTRUCTURE
     1 0KL         1 TEMP              0 ****  ****    0 ROOT
