@<TRIPOS>MOLECULE
0KM
   49    52     1     0     0
SMALL
bcc


@<TRIPOS>ATOM
      1 O1           0.0000     0.0000     0.0000 o          1 0KM      -0.634500
      2 C1           1.2120     0.0000     0.0000 c          1 0KM       0.637500
      3 C2           2.1180     0.0000     1.2130 c3         1 0KM       0.153800
      4 N1           3.4790     0.0010     0.6530 nu         1 0KM      -0.549200
      5 C3           3.3410     0.0010    -0.7130 c2         1 0KM       0.400800
      6 N2           2.0180    -0.0050    -1.0790 n          1 0KM       0.003700
      7 N3           4.3360     0.0020    -1.5520 n2         1 0KM      -0.795100
      8 C4           1.5430    -0.0140    -2.4650 c3         1 0KM       0.087300
      9 C5           1.8890     1.2380     2.0410 ca         1 0KM      -0.101300
     10 C6           2.9670     1.9680     2.5060 ca         1 0KM      -0.093000
     11 C7           2.7560     3.1030     3.2660 ca         1 0KM      -0.095500
     12 C8           1.4680     3.5090     3.5610 ca         1 0KM      -0.094000
     13 C9           0.3900     2.7790     3.0960 ca         1 0KM      -0.095500
     14 C10          0.6010     1.6470     2.3310 ca         1 0KM      -0.093000
     15 C11          1.8900    -1.2380     2.0400 ca         1 0KM      -0.099300
     16 C12          0.6100    -1.5720     2.4450 ca         1 0KM      -0.084000
     17 C13          0.3930    -2.7110     3.2000 ca         1 0KM      -0.093000
     18 C14          1.4520    -3.5190     3.5540 ca         1 0KM      -0.090000
     19 C15          2.7440    -3.1880     3.1500 cp         1 0KM      -0.029000
     20 C16          2.9570    -2.0410     2.3890 ca         1 0KM      -0.095000
     21 C17          6.0290    -5.6700     4.2270 ca         1 0KM      -0.211000
     22 C18          3.6740    -5.2020     4.2860 ca         1 0KM      -0.141000
     23 C19          3.8880    -4.0550     3.5270 cp         1 0KM       0.010000
     24 C20          5.1780    -3.7300     3.1110 ca         1 0KM      -0.146000
     25 C21          6.2410    -4.5350     3.4670 ca         1 0KM      -0.051000
     26 C22          4.7460    -6.0080     4.6350 ca         1 0KM       0.157100
     27 O2           4.5400    -7.1280     5.3760 os         1 0KM      -0.307900
     28 C23          5.6910    -7.9130     5.6970 c3         1 0KM       0.244700
     29 H1           5.2770     0.0050    -1.2120 hn         1 0KM       0.331400
     30 H3           0.4630    -0.0940    -2.4760 h1         1 0KM       0.023033
     31 H4           1.9740    -0.8580    -2.9900 h1         1 0KM       0.023033
     32 H5           1.8420     0.9060    -2.9550 h1         1 0KM       0.023033
     33 H6           3.9760     1.6510     2.2750 ha         1 0KM       0.119000
     34 H7           3.6010     3.6750     3.6300 ha         1 0KM       0.105000
     35 H8           1.3030     4.3980     4.1590 ha         1 0KM       0.103000
     36 H9          -0.6190     3.0980     3.3250 ha         1 0KM       0.105000
     37 H10         -0.2440     1.0750     1.9660 ha         1 0KM       0.119000
     38 H11         -0.2260    -0.9390     2.1700 ha         1 0KM       0.133000
     39 H12         -0.6120    -2.9670     3.5140 ha         1 0KM       0.107000
     40 H13          1.2800    -4.4110     4.1450 ha         1 0KM       0.115000
     41 H14          3.9590    -1.7780     2.0720 ha         1 0KM       0.113000
     42 H16          2.6720    -5.4640     4.6040 ha         1 0KM       0.125000
     43 H17          5.3470    -2.8410     2.5160 ha         1 0KM       0.108000
     44 H18          7.2430    -4.2780     3.1470 ha         1 0KM       0.100000
     45 H19          6.3880    -7.3130     6.2700 h1         1 0KM      -0.002300
     46 H20          6.1680    -8.2460     4.7840 h1         1 0KM      -0.002300
     47 H21          5.3900    -8.7740     6.2820 h1         1 0KM      -0.002300
     48 H22          4.3380     0.0030     1.1670 hn         1 0KM       0.338800
     49 H15          6.8670    -6.3000     4.5020 ha         1 0KM       0.120000
@<TRIPOS>BOND
     1     1     2 2   
     2     2     3 1   
     3     2     6 1   
     4     3     4 1   
     5     3     9 1   
     6     3    15 1   
     7     4     5 1   
     8     4    48 1   
     9     5     6 1   
    10     5     7 2   
    11     6     8 1   
    12     7    29 1   
    13     8    30 1   
    14     8    31 1   
    15     8    32 1   
    16     9    10 ar  
    17     9    14 ar  
    18    10    11 ar  
    19    10    33 1   
    20    11    12 ar  
    21    11    34 1   
    22    12    13 ar  
    23    12    35 1   
    24    13    14 ar  
    25    13    36 1   
    26    14    37 1   
    27    15    16 ar  
    28    15    20 ar  
    29    16    17 ar  
    30    16    38 1   
    31    17    18 ar  
    32    17    39 1   
    33    18    19 ar  
    34    18    40 1   
    35    19    20 ar  
    36    19    23 1   
    37    20    41 1   
    38    21    25 ar  
    39    21    26 ar  
    40    21    49 1   
    41    22    23 ar  
    42    22    26 ar  
    43    22    42 1   
    44    23    24 ar  
    45    24    25 ar  
    46    24    43 1   
    47    25    44 1   
    48    26    27 1   
    49    27    28 1   
    50    28    45 1   
    51    28    46 1   
    52    28    47 1   
@<TRIPOS>SUBSTRUCTURE
     1 0KM         1 TEMP              0 ****  ****    0 ROOT
