@<TRIPOS>MOLECULE
molecule
   49    52     1     0     0
SMALL
bcc


@<TRIPOS>ATOM
      1 O1           0.0000     0.0000     0.0000 o          1 0KM      -0.596500
      2 C1           1.2120     0.0000     0.0000 c          1 0KM       0.721500
      3 C2           2.1180     0.0000     1.2130 c3         1 0KM       0.255800
      4 N1           3.4790     0.0010     0.6530 nu         1 0KM      -0.882200
      5 C3           3.3410     0.0010    -0.7130 c2         1 0KM       0.699800
      6 N2           2.0180    -0.0050    -1.0790 n          1 0KM      -0.439300
      7 N3           4.3360     0.0020    -1.5520 n2         1 0KM      -0.918100
      8 C4           1.5430    -0.0140    -2.4650 c3         1 0KM       0.101300
      9 C5           1.8890     1.2380     2.0410 ca         1 0KM      -0.096300
     10 C6           2.9670     1.9680     2.5060 ca         1 0KM      -0.108500
     11 C7           2.7560     3.1030     3.2660 ca         1 0KM      -0.127000
     12 C8           1.4680     3.5090     3.5610 ca         1 0KM      -0.119000
     13 C9           0.3900     2.7790     3.0960 ca         1 0KM      -0.127000
     14 C10          0.6010     1.6470     2.3310 ca         1 0KM      -0.108500
     15 C11          1.8900    -1.2380     2.0400 ca         1 0KM      -0.096300
     16 C12          0.6100    -1.5720     2.4450 ca         1 0KM      -0.104000
     17 C13          0.3930    -2.7110     3.2000 ca         1 0KM      -0.126000
     18 C14          1.4520    -3.5190     3.5540 ca         1 0KM      -0.108000
     19 C15          2.7440    -3.1880     3.1500 cp         1 0KM      -0.036000
     20 C16          2.9570    -2.0410     2.3890 ca         1 0KM      -0.098000
     21 C17          6.0290    -5.6700     4.2270 ca         1 0KM      -0.220000
     22 C18          3.6740    -5.2020     4.2860 ca         1 0KM      -0.151000
     23 C19          3.8880    -4.0550     3.5270 cp         1 0KM       0.001000
     24 C20          5.1780    -3.7300     3.1110 ca         1 0KM      -0.158000
     25 C21          6.2410    -4.5350     3.4670 ca         1 0KM      -0.087000
     26 C22          4.7460    -6.0080     4.6350 ca         1 0KM       0.143100
     27 O2           4.5400    -7.1280     5.3760 os         1 0KM      -0.329900
     28 C23          5.6910    -7.9130     5.6970 c3         1 0KM       0.128700
     29 H1           4.1600     0.0010    -2.5380 hn         1 0KM       0.411400
     30 H3           1.9220    -0.8930    -2.9720 h1         1 0KM       0.055033
     31 H4           1.8970     0.8750    -2.9730 h1         1 0KM       0.055033
     32 H5           0.4600    -0.0290    -2.4760 h1         1 0KM       0.055033
     33 H6           3.9760     1.6510     2.2750 ha         1 0KM       0.142000
     34 H7           3.6010     3.6750     3.6300 ha         1 0KM       0.133500
     35 H8           1.3030     4.3980     4.1590 ha         1 0KM       0.131000
     36 H9          -0.6190     3.0980     3.3250 ha         1 0KM       0.133500
     37 H10         -0.2440     1.0750     1.9660 ha         1 0KM       0.142000
     38 H11         -0.2260    -0.9390     2.1700 ha         1 0KM       0.152000
     39 H12         -0.6120    -2.9670     3.5140 ha         1 0KM       0.136000
     40 H13          1.2800    -4.4110     4.1450 ha         1 0KM       0.138000
     41 H14          3.9590    -1.7780     2.0720 ha         1 0KM       0.137000
     42 H16          2.6720    -5.4640     4.6040 ha         1 0KM       0.146000
     43 H17          5.3470    -2.8410     2.5160 ha         1 0KM       0.132000
     44 H18          7.2430    -4.2780     3.1470 ha         1 0KM       0.132000
     45 H19          6.1660    -8.2500     4.7840 h1         1 0KM       0.041700
     46 H20          5.3900    -8.7710     6.2860 h1         1 0KM       0.041700
     47 H21          6.3900    -7.3120     6.2670 h1         1 0KM       0.041700
     48 H22          4.3380     0.0030     1.1670 hn         1 0KM       0.492800
     49 H15          6.8670    -6.3000     4.5020 ha         1 0KM       0.135000
@<TRIPOS>BOND
     1    17    18 ar  
     2    17    16 ar  
     3    18    19 ar  
     4    16    15 ar  
     5    19    23 1   
     6    19    20 ar  
     7    24    23 ar  
     8    24    25 ar  
     9    12    13 ar  
    10    12    11 ar  
    11    13    14 ar  
    12    11    10 ar  
    13    23    22 ar  
    14    15    20 ar  
    15    15     3 1   
    16    25    21 ar  
    17    14     9 ar  
    18    10     9 ar  
    19     9     3 1   
    20    22    26 ar  
    21    21    26 ar  
    22     3     4 1   
    23     3     2 1   
    24    26    27 1   
    25     1     2 2   
    26     4     5 1   
    27     2     6 1   
    28    27    28 1   
    29     5     6 1   
    30     5     7 2   
    31     6     8 1   
    32     7    29 1   
    33     8    30 1   
    34     8    31 1   
    35     8    32 1   
    36    10    33 1   
    37    11    34 1   
    38    12    35 1   
    39    13    36 1   
    40    14    37 1   
    41    16    38 1   
    42    17    39 1   
    43    18    40 1   
    44    20    41 1   
    45    21    49 1   
    46    22    42 1   
    47    24    43 1   
    48    25    44 1   
    49    28    45 1   
    50    28    46 1   
    51    28    47 1   
    52     4    48 1   
@<TRIPOS>SUBSTRUCTURE
     1 0KM         1 TEMP              0 ****  ****    0 ROOT
