@<TRIPOS>MOLECULE
0KM
   49    52     1     0     0
SMALL
bcc


@<TRIPOS>ATOM
      1 O1          -0.5330     1.1700     0.4840 o          1 0KM      -0.593500
      2 C1           0.5410     0.7950     0.0040 c          1 0KM       0.706500
      3 C2           1.7100     0.0460     0.7360 c3         1 0KM       0.228800
      4 N1           2.6620    -0.2790    -0.3610 nu         1 0KM      -0.764200
      5 C3           2.2320     0.4010    -1.5640 c2         1 0KM       0.627800
      6 N2           0.9320     0.9890    -1.3250 n          1 0KM      -0.452300
      7 N3           2.9370     0.4170    -2.6540 n2         1 0KM      -0.824100
      8 C4           0.0880     1.4560    -2.3740 c3         1 0KM       0.084300
      9 C5           2.3550     0.9180     1.7960 ca         1 0KM      -0.114300
     10 C6           3.5000     0.4340     2.4450 ca         1 0KM      -0.112500
     11 C7           4.1360     1.2050     3.4150 ca         1 0KM      -0.129000
     12 C8           3.6330     2.4620     3.7510 ca         1 0KM      -0.117000
     13 C9           2.4900     2.9420     3.1150 ca         1 0KM      -0.129000
     14 C10          1.8510     2.1750     2.1400 ca         1 0KM      -0.112500
     15 C11          1.1400    -1.1950     1.3970 ca         1 0KM      -0.090300
     16 C12          0.1160    -1.0200     2.3410 ca         1 0KM      -0.100000
     17 C13         -0.4290    -2.1220     2.9930 ca         1 0KM      -0.136000
     18 C14          0.0360    -3.4060     2.7140 ca         1 0KM      -0.106000
     19 C15          1.0570    -3.5920     1.7740 cp         1 0KM      -0.051000
     20 C16          1.6070    -2.4800     1.1170 ca         1 0KM      -0.084000
     21 C17          2.4780    -7.5310     0.9060 ca         1 0KM      -0.201000
     22 C18          2.9170    -5.1640     1.3070 ca         1 0KM      -0.146000
     23 C19          1.5490    -4.9380     1.4760 cp         1 0KM      -0.005000
     24 C20          0.6490    -6.0100     1.3600 ca         1 0KM      -0.154000
     25 C21          1.1140    -7.2890     1.0760 ca         1 0KM      -0.096000
     26 C22          3.3740    -6.4630     1.0230 ca         1 0KM       0.124100
     27 O2           4.7450    -6.5730     0.8810 os         1 0KM      -0.327900
     28 C23          5.2410    -7.8680     0.5680 c3         1 0KM       0.113700
     29 H1           2.5050     0.8530    -3.4400 hn         1 0KM       0.403400
     30 H3          -0.8960     1.7770    -1.9380 h1         1 0KM       0.053367
     31 H4           0.5680     2.3330    -2.8880 h1         1 0KM       0.053367
     32 H5          -0.0920     0.6470    -3.1340 h1         1 0KM       0.053367
     33 H6           3.8890    -0.5670     2.2010 ha         1 0KM       0.146500
     34 H7           5.0330     0.8170     3.9200 ha         1 0KM       0.137000
     35 H8           4.1360     3.0710     4.5170 ha         1 0KM       0.136000
     36 H9           2.0840     3.9300     3.3800 ha         1 0KM       0.137000
     37 H10          0.9400     2.5670     1.6590 ha         1 0KM       0.146500
     38 H11         -0.2630    -0.0060     2.5510 ha         1 0KM       0.155000
     39 H12         -1.2320    -1.9770     3.7310 ha         1 0KM       0.136000
     40 H13         -0.3930    -4.2740     3.2370 ha         1 0KM       0.137000
     41 H14          2.4010    -2.6500     0.3730 ha         1 0KM       0.156000
     42 H16          3.6440    -4.3440     1.3970 ha         1 0KM       0.151000
     43 H17         -0.4290    -5.8300     1.4850 ha         1 0KM       0.137000
     44 H18          0.4020    -8.1220     0.9830 ha         1 0KM       0.132000
     45 H19          4.8250    -8.2270    -0.4050 h1         1 0KM       0.044367
     46 H20          5.0020    -8.5910     1.3860 h1         1 0KM       0.044367
     47 H21          6.3470    -7.7120     0.4900 h1         1 0KM       0.044367
     48 H22          3.6200    -0.1120    -0.1270 hn         1 0KM       0.421800
     49 H15          2.8290    -8.5470     0.6830 ha         1 0KM       0.137000
@<TRIPOS>BOND
     1     1     2 2   
     2     2     3 1   
     3     2     6 1   
     4     3     4 1   
     5     3     9 1   
     6     3    15 1   
     7     4     5 1   
     8     4    48 1   
     9     5     6 1   
    10     5     7 2   
    11     6     8 1   
    12     7    29 1   
    13     8    30 1   
    14     8    31 1   
    15     8    32 1   
    16     9    10 ar  
    17     9    14 ar  
    18    10    11 ar  
    19    10    33 1   
    20    11    12 ar  
    21    11    34 1   
    22    12    13 ar  
    23    12    35 1   
    24    13    14 ar  
    25    13    36 1   
    26    14    37 1   
    27    15    16 ar  
    28    15    20 ar  
    29    16    17 ar  
    30    16    38 1   
    31    17    18 ar  
    32    17    39 1   
    33    18    19 ar  
    34    18    40 1   
    35    19    20 ar  
    36    19    23 1   
    37    20    41 1   
    38    21    25 ar  
    39    21    26 ar  
    40    21    49 1   
    41    22    23 ar  
    42    22    26 ar  
    43    22    42 1   
    44    23    24 ar  
    45    24    25 ar  
    46    24    43 1   
    47    25    44 1   
    48    26    27 1   
    49    27    28 1   
    50    28    45 1   
    51    28    46 1   
    52    28    47 1   
@<TRIPOS>SUBSTRUCTURE
     1 0KM         1 TEMP              0 ****  ****    0 ROOT
