@<TRIPOS>MOLECULE
0KN
   85    89     1     0     0
SMALL
bcc


@<TRIPOS>ATOM
      1 C29         -1.5730     0.6180     1.3250 cy         1 0KN      -0.091900
      2 C30         -0.9260     1.9930     1.0620 cy         1 0KN      -0.079400
      3 C31         -0.2730     1.9730     2.4570 cy         1 0KN      -0.091900
      4 C18         -0.8910     0.5670     2.7290 cy         1 0KN       0.100800
      5 C19          0.1100    -0.5520     2.9510 c3         1 0KN      -0.120400
      6 O17         -1.9410     0.6130     3.7070 os         1 0KN      -0.450100
      7 C16         -1.4790     0.5020     5.0140 ca         1 0KN       0.623600
      8 N23         -1.9460     1.3880     5.9270 nb         1 0KN      -0.636000
      9 C22         -1.5310     1.2020     7.1920 ca         1 0KN       0.463200
     10 C21         -0.6550     0.1660     7.6120 ca         1 0KN      -0.168600
     11 C24         -0.2600     0.0480     9.0380 c3         1 0KN      -0.042100
     12 C25          0.9900     0.8550     9.4150 c3         1 0KN      -0.050000
     13 C27          1.2510     0.6430    10.9020 c3         1 0KN      -0.092767
     14 C28          0.7650     2.3360     9.1550 c3         1 0KN      -0.092767
     15 C26          2.1930     0.3680     8.6250 c3         1 0KN      -0.092767
     16 C20         -0.1920    -0.7320     6.6470 ca         1 0KN      -0.045000
     17 C15         -0.6130    -0.5780     5.3200 ca         1 0KN      -0.348600
     18 C6          -0.1360    -1.4160     4.1920 c3         1 0KN       0.226800
     19 N5          -1.0970    -2.5740     3.9190 ny         1 0KN      -0.765000
     20 C4          -2.4780    -2.1560     3.5630 c3         1 0KN       0.088800
     21 C3          -3.4120    -3.3540     3.3060 c3         1 0KN       0.108100
     22 O14         -3.4010    -4.1450     4.4810 oh         1 0KN      -0.609800
     23 C2          -4.8530    -2.8600     2.9880 c3         1 0KN       0.118500
     24 N1          -5.8650    -3.9660     3.1350 ny         1 0KN      -0.675800
     25 C35         -5.6250    -5.1640     2.2530 c          1 0KN       0.557100
     26 O36         -4.5460    -5.7270     2.3840 o          1 0KN      -0.461100
     27 C37         -6.7640    -5.6050     1.3330 c3         1 0KN       0.097100
     28 C38         -7.6330    -6.6020     2.0780 c3         1 0KN      -0.142100
     29 O39         -7.4900    -4.4360     0.9760 os         1 0KN      -0.463600
     30 C40         -8.2140    -4.5590    -0.2510 c3         1 0KN       0.119700
     31 C7          -5.2690    -1.6620     3.8640 c3         1 0KN      -0.050100
     32 C8          -6.7140    -1.3330     3.7360 ca         1 0KN      -0.180300
     33 C9          -7.6270    -1.9540     4.6260 ca         1 0KN      -0.164000
     34 C10         -8.9470    -1.5840     4.5070 ca         1 0KN       0.080100
     35 O32        -10.0380    -2.0270     5.2320 os         1 0KN      -0.322900
     36 C33        -11.1960    -1.2910     4.7500 c3         1 0KN       0.320200
     37 O34        -10.7430    -0.4460     3.6590 os         1 0KN      -0.305900
     38 C11         -9.3790    -0.6210     3.5450 ca         1 0KN       0.102100
     39 C12         -8.4910    -0.0080     2.6850 ca         1 0KN      -0.107000
     40 C13         -7.1400    -0.3890     2.8040 ca         1 0KN      -0.093000
     41 H1          -1.2420    -0.1870     0.6370 hc         1 0KN       0.071950
     42 H2          -2.6820     0.6490     1.3840 hc         1 0KN       0.071950
     43 H3          -1.6610     2.8150     0.9210 hc         1 0KN       0.079700
     44 H4          -0.2000     1.9960     0.2210 hc         1 0KN       0.079700
     45 H5           0.8370     1.9890     2.4480 hc         1 0KN       0.071950
     46 H6          -0.6610     2.7520     3.1510 hc         1 0KN       0.071950
     47 H7           0.1800    -1.1870     2.0280 hc         1 0KN       0.095200
     48 H8           1.1300    -0.0930     3.1000 hc         1 0KN       0.095200
     49 H9          -1.9090     1.9440     7.9270 h4         1 0KN       0.064100
     50 H10         -1.1120     0.3940     9.6860 hc         1 0KN       0.065200
     51 H11         -0.0690    -1.0330     9.2830 hc         1 0KN       0.065200
     52 H12          0.3840     1.0030    11.5060 hc         1 0KN       0.042922
     53 H13          1.4170    -0.4390    11.1210 hc         1 0KN       0.042922
     54 H14          2.1600     1.2120    11.2130 hc         1 0KN       0.042922
     55 H15          0.5810     2.5220     8.0700 hc         1 0KN       0.042922
     56 H16         -0.1130     2.7050     9.7370 hc         1 0KN       0.042922
     57 H17          1.6660     2.9190     9.4670 hc         1 0KN       0.042922
     58 H18          2.3880    -0.7110     8.8350 hc         1 0KN       0.042922
     59 H19          3.1010     0.9540     8.9110 hc         1 0KN       0.042922
     60 H20          2.0210     0.4960     7.5290 hc         1 0KN       0.042922
     61 H21          0.5090    -1.5340     6.9290 ha         1 0KN       0.156000
     62 H22          0.8340    -1.9380     4.4720 hx         1 0KN       0.114700
     63 H23         -0.7040    -3.1410     3.1620 hn         1 0KN       0.451300
     64 H25         -2.4370    -1.4970     2.6460 hx         1 0KN       0.136700
     65 H26         -2.8630    -1.5380     4.4300 hx         1 0KN       0.136700
     66 H27         -3.0390    -3.9460     2.4200 h1         1 0KN       0.079700
     67 H28         -3.3820    -5.0800     4.2190 ho         1 0KN       0.450000
     68 H29         -4.8800    -2.5450     1.9010 hx         1 0KN       0.116700
     69 H30         -6.8010    -3.5660     2.9170 hn         1 0KN       0.487800
     70 H31         -6.2850    -6.0780     0.4240 h1         1 0KN       0.121700
     71 H32         -8.1650    -6.1150     2.9300 hc         1 0KN       0.083700
     72 H33         -8.4050    -7.0040     1.3730 hc         1 0KN       0.083700
     73 H34         -7.0190    -7.4560     2.4520 hc         1 0KN       0.083700
     74 H35         -8.9640    -5.3830    -0.1750 h1         1 0KN       0.069700
     75 H36         -8.7210    -3.5650    -0.3510 h1         1 0KN       0.069700
     76 H37         -7.5080    -4.7380    -1.0980 h1         1 0KN       0.069700
     77 H38         -4.6550    -0.7760     3.5360 hc         1 0KN       0.094200
     78 H39         -5.0190    -1.8840     4.9370 hc         1 0KN       0.094200
     79 H40         -7.2940    -2.6410     5.4140 ha         1 0KN       0.148000
     80 H41        -11.5750    -0.6390     5.5750 h2         1 0KN       0.102200
     81 H42        -11.9380    -2.0230     4.3460 h2         1 0KN       0.102200
     82 H43         -8.8140     0.7490     1.9550 ha         1 0KN       0.185000
     83 H44         -6.4060     0.1000     2.1430 ha         1 0KN       0.145000
     84 H52         -1.1520    -3.1510     4.7700 hn         1 0KN       0.451300
     85 H121        -5.8630    -4.2640     4.1210 hn         1 0KN       0.487800
@<TRIPOS>BOND
     1     1     2 1   
     2     1     4 1   
     3     1    41 1   
     4     1    42 1   
     5     2     3 1   
     6     2    43 1   
     7     2    44 1   
     8     3     4 1   
     9     3    45 1   
    10     3    46 1   
    11     4     5 1   
    12     4     6 1   
    13     5    18 1   
    14     5    47 1   
    15     5    48 1   
    16     6     7 1   
    17     7     8 ar  
    18     7    17 ar  
    19     8     9 ar  
    20     9    10 ar  
    21     9    49 1   
    22    10    11 1   
    23    10    16 ar  
    24    11    12 1   
    25    11    50 1   
    26    11    51 1   
    27    12    13 1   
    28    12    14 1   
    29    12    15 1   
    30    13    52 1   
    31    13    53 1   
    32    13    54 1   
    33    14    55 1   
    34    14    56 1   
    35    14    57 1   
    36    15    58 1   
    37    15    59 1   
    38    15    60 1   
    39    16    17 ar  
    40    16    61 1   
    41    17    18 1   
    42    18    19 1   
    43    18    62 1   
    44    19    20 1   
    45    19    63 1   
    46    19    84 1   
    47    20    21 1   
    48    20    64 1   
    49    20    65 1   
    50    21    22 1   
    51    21    23 1   
    52    21    66 1   
    53    22    67 1   
    54    23    24 1   
    55    23    31 1   
    56    23    68 1   
    57    24    25 1   
    58    24    69 1   
    59    24    85 1   
    60    25    26 2   
    61    25    27 1   
    62    27    28 1   
    63    27    29 1   
    64    27    70 1   
    65    28    71 1   
    66    28    72 1   
    67    28    73 1   
    68    29    30 1   
    69    30    74 1   
    70    30    75 1   
    71    30    76 1   
    72    31    32 1   
    73    31    77 1   
    74    31    78 1   
    75    32    33 ar  
    76    32    40 ar  
    77    33    34 ar  
    78    33    79 1   
    79    34    35 1   
    80    34    38 ar  
    81    35    36 1   
    82    36    37 1   
    83    36    80 1   
    84    36    81 1   
    85    37    38 1   
    86    38    39 ar  
    87    39    40 ar  
    88    39    82 1   
    89    40    83 1   
@<TRIPOS>SUBSTRUCTURE
     1 0KN         1 TEMP              0 ****  ****    0 ROOT
