@<TRIPOS>MOLECULE
0KN
   83    87     1     0     0
SMALL
bcc


@<TRIPOS>ATOM
      1 C29          0.0000     0.0000     0.0000 cy         1 0KN      -0.050400
      2 C30          1.5390     0.0000     0.0000 cy         1 0KN      -0.043400
      3 C31          1.4630     0.0000     1.5370 cy         1 0KN      -0.050400
      4 C18          0.0830    -0.6490     1.3860 cy         1 0KN       0.136800
      5 C19          0.1260    -2.1780     1.3460 c3         1 0KN      -0.052400
      6 O17         -0.8860    -0.1680     2.3120 os         1 0KN      -0.396100
      7 C16         -0.9230    -0.7540     3.5370 ca         1 0KN       0.629600
      8 N23         -1.6010    -0.1420     4.5020 nb         1 0KN      -0.605000
      9 C22         -1.6940    -0.6420     5.7170 ca         1 0KN       0.432200
     10 C21         -1.0820    -1.8370     6.0360 ca         1 0KN      -0.251600
     11 C24         -1.1950    -2.4050     7.4280 c3         1 0KN       0.050900
     12 C25         -2.4720    -3.2400     7.5350 c3         1 0KN      -0.069000
     13 C27         -2.3750    -4.4460     6.5990 c3         1 0KN       0.001567
     14 C28         -2.6450    -3.7260     8.9750 c3         1 0KN       0.001567
     15 C26         -3.6770    -2.3830     7.1390 c3         1 0KN       0.001567
     16 C20         -0.3610    -2.5080     5.0600 ca         1 0KN      -0.024000
     17 C15         -0.2790    -1.9540     3.7920 ca         1 0KN      -0.270600
     18 C6           0.5190    -2.6770     2.7390 c3         1 0KN       0.180800
     19 N5           0.2540    -4.1190     2.8330 n7         1 0KN      -0.575200
     20 C4           1.3990    -4.8290     3.4220 c3         1 0KN       0.122800
     21 C3           2.4010    -5.1800     2.3210 c3         1 0KN       0.119100
     22 O14          2.8720    -3.9810     1.7040 oh         1 0KN      -0.590800
     23 C2           3.5810    -5.9390     2.9310 c3         1 0KN       0.013700
     24 N1           3.1140    -7.2150     3.4770 ns         1 0KN      -0.185900
     25 C35          2.5290    -8.1200     2.6690 c          1 0KN       0.566100
     26 O36          2.4770    -7.9210     1.4730 o          1 0KN      -0.628100
     27 C37          1.9380    -9.3790     3.2500 c3         1 0KN       0.105100
     28 C38          0.7150    -9.0250     4.0980 c3         1 0KN      -0.024100
     29 O39          1.5460   -10.2550     2.1900 os         1 0KN      -0.373600
     30 C40          1.7140   -11.6420     2.4890 c3         1 0KN       0.242700
     31 C7           4.6320    -6.2020     1.8500 c3         1 0KN      -0.014100
     32 C8           5.8480    -6.8380     2.4740 ca         1 0KN      -0.087300
     33 C9           6.8700    -6.0440     2.9560 ca         1 0KN      -0.088000
     34 C10          7.9890    -6.6270     3.5300 ca         1 0KN       0.059100
     35 O32          9.1170    -6.0810     4.0730 os         1 0KN      -0.313900
     36 C33          9.7100    -7.1300     4.8610 c3         1 0KN       0.431200
     37 O34          9.2620    -8.3370     4.2170 os         1 0KN      -0.313900
     38 C11          8.0780    -8.0140     3.6200 ca         1 0KN       0.052100
     39 C12          7.0490    -8.8030     3.1340 ca         1 0KN      -0.086000
     40 C13          5.9340    -8.2150     2.5680 ca         1 0KN      -0.108000
     41 H1          -0.4240    -0.6560    -0.7510 hc         1 0KN       0.037700
     42 H2          -0.4240     0.9970     0.0230 hc         1 0KN       0.037700
     43 H3           1.9630     0.9120    -0.4030 hc         1 0KN       0.027200
     44 H4           1.9630    -0.9120    -0.4030 hc         1 0KN       0.027200
     45 H5           1.4200     0.9970     1.9590 hc         1 0KN       0.037700
     46 H6           2.1920    -0.6560     1.9970 hc         1 0KN       0.037700
     47 H7          -0.8510    -2.5640     1.0830 hc         1 0KN       0.036700
     48 H8           0.8620    -2.5030     0.6210 hc         1 0KN       0.036700
     49 H9          -2.2480    -0.1040     6.4760 h4         1 0KN      -0.014900
     50 H10         -1.2310    -1.5960     8.1470 hc         1 0KN       0.018700
     51 H11         -0.3350    -3.0320     7.6330 hc         1 0KN       0.018700
     52 H12         -1.3970    -4.9020     6.6980 hc         1 0KN       0.007033
     53 H13         -3.1380    -5.1680     6.8600 hc         1 0KN       0.007033
     54 H14         -2.5190    -4.1210     5.5750 hc         1 0KN       0.007033
     55 H15         -1.7880    -4.3240     9.2600 hc         1 0KN       0.007033
     56 H16         -3.5440    -4.3270     9.0490 hc         1 0KN       0.007033
     57 H17         -2.7260    -2.8730     9.6370 hc         1 0KN       0.007033
     58 H18         -4.5900    -2.8850     7.4360 hc         1 0KN       0.007033
     59 H19         -3.6790    -2.2370     6.0660 hc         1 0KN       0.007033
     60 H20         -3.6150    -1.4220     7.6350 hc         1 0KN       0.007033
     61 H21          0.1290    -3.4480     5.2850 ha         1 0KN       0.119000
     62 H22          1.5740    -2.4910     2.9010 h1         1 0KN       0.053700
     63 H23          0.0700    -4.4850     1.9190 hn         1 0KN       0.266800
     64 H25          1.0530    -5.7380     3.8990 h1         1 0KN       0.031200
     65 H26          1.8780    -4.1940     4.1570 h1         1 0KN       0.031200
     66 H27          1.9170    -5.8030     1.5770 h1         1 0KN       0.052700
     67 H28          3.0390    -4.1420     0.7900 ho         1 0KN       0.401000
     68 H29          4.0200    -5.3460     3.7240 h1         1 0KN       0.044700
     69 H30          3.2150    -7.4080     4.4540 hn         1 0KN       0.176500
     70 H31          2.6770    -9.8710     3.8700 h1         1 0KN       0.016700
     71 H32          0.0110    -9.8480     4.0760 hc         1 0KN       0.015700
     72 H33          0.2440    -8.1360     3.6990 hc         1 0KN       0.015700
     73 H34          1.0250    -8.8420     5.1200 hc         1 0KN       0.015700
     74 H35          2.2970   -11.7470     3.3960 h1         1 0KN      -0.009967
     75 H36          0.7430   -12.1010     2.6280 h1         1 0KN      -0.009967
     76 H37          2.2300   -12.1280     1.6700 h1         1 0KN      -0.009967
     77 H38          4.9140    -5.2650     1.3850 hc         1 0KN       0.052700
     78 H39          4.2210    -6.8670     1.1010 hc         1 0KN       0.052700
     79 H40          6.8080    -4.9670     2.8650 ha         1 0KN       0.118000
     80 H41          9.3280    -7.0900     5.8740 h2         1 0KN       0.014200
     81 H42         10.7900    -7.0640     4.8080 h2         1 0KN       0.014200
     82 H43          7.1140    -9.8820     3.2060 ha         1 0KN       0.112000
     83 H44          5.1420    -8.8340     2.1640 ha         1 0KN       0.120000
@<TRIPOS>BOND
     1     1     2 1   
     2     1     4 1   
     3     1    41 1   
     4     1    42 1   
     5     2     3 1   
     6     2    43 1   
     7     2    44 1   
     8     3     4 1   
     9     3    45 1   
    10     3    46 1   
    11     4     5 1   
    12     4     6 1   
    13     5    18 1   
    14     5    47 1   
    15     5    48 1   
    16     6     7 1   
    17     7     8 ar  
    18     7    17 ar  
    19     8     9 ar  
    20     9    10 ar  
    21     9    49 1   
    22    10    11 1   
    23    10    16 ar  
    24    11    12 1   
    25    11    50 1   
    26    11    51 1   
    27    12    13 1   
    28    12    14 1   
    29    12    15 1   
    30    13    52 1   
    31    13    53 1   
    32    13    54 1   
    33    14    55 1   
    34    14    56 1   
    35    14    57 1   
    36    15    58 1   
    37    15    59 1   
    38    15    60 1   
    39    16    17 ar  
    40    16    61 1   
    41    17    18 1   
    42    18    19 1   
    43    18    62 1   
    44    19    20 1   
    45    19    63 1   
    46    20    21 1   
    47    20    64 1   
    48    20    65 1   
    49    21    22 1   
    50    21    23 1   
    51    21    66 1   
    52    22    67 1   
    53    23    24 1   
    54    23    31 1   
    55    23    68 1   
    56    24    25 1   
    57    24    69 1   
    58    25    26 2   
    59    25    27 1   
    60    27    28 1   
    61    27    29 1   
    62    27    70 1   
    63    28    71 1   
    64    28    72 1   
    65    28    73 1   
    66    29    30 1   
    67    30    74 1   
    68    30    75 1   
    69    30    76 1   
    70    31    32 1   
    71    31    77 1   
    72    31    78 1   
    73    32    33 ar  
    74    32    40 ar  
    75    33    34 ar  
    76    33    79 1   
    77    34    35 1   
    78    34    38 ar  
    79    35    36 1   
    80    36    37 1   
    81    36    80 1   
    82    36    81 1   
    83    37    38 1   
    84    38    39 ar  
    85    39    40 ar  
    86    39    82 1   
    87    40    83 1   
@<TRIPOS>SUBSTRUCTURE
     1 0KN         1 TEMP              0 ****  ****    0 ROOT
