@<TRIPOS>MOLECULE
0KO
   61    64     1     0     0
SMALL
bcc


@<TRIPOS>ATOM
      1 C31          0.0340     0.2900    -0.3240 c3         1 0KO       0.125700
      2 O30          1.4370     0.4820    -0.1480 os         1 0KO      -0.447100
      3 C27          1.9290     0.4340     1.1410 ca         1 0KO       0.611600
      4 C28          3.3340     0.6070     1.2430 ca         1 0KO      -0.249300
      5 C29          3.9130     0.5770     2.5040 ca         1 0KO      -0.049000
      6 N26          1.1170     0.2410     2.2120 nb         1 0KO      -0.716000
      7 C25          1.7000     0.2060     3.4200 ca         1 0KO       0.396200
      8 C24          3.0950     0.3730     3.6390 ca         1 0KO      -0.021700
      9 N7           3.6130     0.4180     4.9530 nu         1 0KO      -0.704300
     10 C2           4.6260    -0.4580     5.3770 ca         1 0KO       0.684200
     11 N1           5.2560    -1.2650     4.4570 nb         1 0KO      -0.722000
     12 C6           6.2790    -2.0190     4.8640 ca         1 0KO       0.472200
     13 C5           6.7710    -2.0490     6.1860 ca         1 0KO      -0.264600
     14 C9           7.8940    -2.9570     6.5720 c3         1 0KO       0.230100
     15 N10          9.0710    -2.8310     5.7190 n3         1 0KO      -0.729600
     16 C15         10.0280    -3.9020     5.9600 c3         1 0KO       0.151300
     17 C14         11.3020    -3.7700     5.0970 c3         1 0KO       0.223300
     18 C11          9.6770    -1.5100     5.7850 c3         1 0KO       0.151300
     19 C12         10.9490    -1.3920     4.9190 c3         1 0KO       0.223300
     20 N13         11.8910    -2.4580     5.1490 n3         1 0KO      -0.821500
     21 S16         13.4530    -2.1980     5.5030 s6         1 0KO       1.461900
     22 C32         13.4510    -2.0230     7.2000 c3         1 0KO      -0.363300
     23 O34         13.8830    -0.9720     4.9540 o          1 0KO      -0.650300
     24 O33         14.2180    -3.3440     5.1980 o          1 0KO      -0.650300
     25 C4           6.1390    -1.2370     7.1270 ca         1 0KO      -0.019000
     26 C3           5.0540    -0.4410     6.7460 cp         1 0KO      -0.313800
     27 C8           4.4010     0.3950     7.7850 cp         1 0KO       0.776500
     28 N21          5.2190     1.1950     8.5290 nb         1 0KO      -0.786000
     29 N17          3.0440     0.2810     7.9440 nb         1 0KO      -0.795000
     30 C18          2.5010     1.0490     8.9440 ca         1 0KO       0.713300
     31 C22          1.0080     0.9550     9.1500 c3         1 0KO      -0.142400
     32 N19          3.1990     1.8880     9.7590 nb         1 0KO      -0.790000
     33 C20          4.5740     1.9310     9.5250 ca         1 0KO       0.906900
     34 N23          5.3510     2.7180    10.3550 nv         1 0KO      -0.941500
     35 H1          -0.2760    -0.7170     0.0440 h1         1 0KO       0.049033
     36 H2          -0.5420     1.0920     0.1970 h1         1 0KO       0.049033
     37 H3          -0.0930     0.3650    -1.4340 h1         1 0KO       0.049033
     38 H4           3.9320     0.7590     0.3350 ha         1 0KO       0.160000
     39 H5           5.0000     0.7090     2.6100 ha         1 0KO       0.157000
     40 H6           1.0030     0.0430     4.2630 h4         1 0KO       0.023100
     41 H7           2.9130     0.6030     5.6430 hn         1 0KO       0.441800
     42 H8           6.7440    -2.6470     4.0790 h4         1 0KO       0.039100
     43 H9           7.5270    -4.0220     6.4810 h1         1 0KO       0.041200
     44 H10          8.1520    -2.7810     7.6600 h1         1 0KO       0.041200
     45 H12         10.3280    -3.9590     7.0480 h1         1 0KO       0.040700
     46 H13          9.5320    -4.8760     5.6890 h1         1 0KO       0.040700
     47 H14         11.0370    -4.0110     4.0270 h1         1 0KO       0.064450
     48 H15         12.0530    -4.5320     5.4520 h1         1 0KO       0.064450
     49 H16          8.9230    -0.7690     5.3970 h1         1 0KO       0.040700
     50 H17          9.9320    -1.2200     6.8470 h1         1 0KO       0.040700
     51 H18         11.4430    -0.4030     5.1420 h1         1 0KO       0.064450
     52 H19         10.6490    -1.3960     3.8310 h1         1 0KO       0.064450
     53 H20         14.4850    -1.7970     7.5640 h1         1 0KO       0.111033
     54 H21         12.8040    -1.1880     7.5610 h1         1 0KO       0.111033
     55 H22         13.1240    -2.9440     7.7390 h1         1 0KO       0.111033
     56 H23          6.4880    -1.2230     8.1730 ha         1 0KO       0.150000
     57 H24          0.6820     1.5450    10.0410 hc         1 0KO       0.067367
     58 H25          0.7180    -0.1150     9.2980 hc         1 0KO       0.067367
     59 H26          0.4870     1.3490     8.2430 hc         1 0KO       0.067367
     60 H27          4.9000     3.3520    10.9700 hn         1 0KO       0.446300
     61 H28          6.2980     2.8790    10.1130 hn         1 0KO       0.446300
@<TRIPOS>BOND
     1     1     2 1   
     2     1    35 1   
     3     1    36 1   
     4     1    37 1   
     5     2     3 1   
     6     3     4 ar  
     7     3     6 ar  
     8     4     5 ar  
     9     4    38 1   
    10     5     8 ar  
    11     5    39 1   
    12     6     7 ar  
    13     7     8 ar  
    14     7    40 1   
    15     8     9 1   
    16     9    10 1   
    17     9    41 1   
    18    10    11 ar  
    19    10    26 ar  
    20    11    12 ar  
    21    12    13 ar  
    22    12    42 1   
    23    13    14 1   
    24    13    25 ar  
    25    14    15 1   
    26    14    43 1   
    27    14    44 1   
    28    15    16 1   
    29    15    18 1   
    30    16    17 1   
    31    16    45 1   
    32    16    46 1   
    33    17    20 1   
    34    17    47 1   
    35    17    48 1   
    36    18    19 1   
    37    18    49 1   
    38    18    50 1   
    39    19    20 1   
    40    19    51 1   
    41    19    52 1   
    42    20    21 1   
    43    21    22 1   
    44    21    23 2   
    45    21    24 2   
    46    22    53 1   
    47    22    54 1   
    48    22    55 1   
    49    25    26 ar  
    50    25    56 1   
    51    26    27 1   
    52    27    28 ar  
    53    27    29 ar  
    54    28    33 ar  
    55    29    30 ar  
    56    30    31 1   
    57    30    32 ar  
    58    31    57 1   
    59    31    58 1   
    60    31    59 1   
    61    32    33 ar  
    62    33    34 1   
    63    34    60 1   
    64    34    61 1   
@<TRIPOS>SUBSTRUCTURE
     1 0KO         1 TEMP              0 ****  ****    0 ROOT
