@<TRIPOS>MOLECULE
molecule
   61    64     1     0     0
SMALL
bcc


@<TRIPOS>ATOM
      1 C31          0.0000     0.0000     0.0000 c3         1 0KO       0.139700
      2 O30          1.4290     0.0000     0.0000 os         1 0KO      -0.448100
      3 C27          2.0460     0.0000     1.2090 ca         1 0KO       0.624600
      4 C28          3.4330     0.0050     1.2710 ca         1 0KO      -0.251300
      5 C29          4.0530     0.0050     2.5080 ca         1 0KO      -0.110000
      6 N26          1.3180     0.0000     2.3130 nb         1 0KO      -0.753000
      7 C25          1.8730     0.0010     3.5100 ca         1 0KO       0.407200
      8 C24          3.2540    -0.0000     3.6500 ca         1 0KO      -0.015700
      9 N7           3.8370     0.0000     4.9240 nu         1 0KO      -0.743300
     10 C2           3.0570    -0.2460     6.0430 ca         1 0KO       0.737200
     11 N1           1.7440    -0.3550     5.9190 nb         1 0KO      -0.771000
     12 C6           0.9660    -0.5890     6.9570 ca         1 0KO       0.494200
     13 C5           1.4910    -0.7280     8.2280 ca         1 0KO      -0.286600
     14 C9           0.5830    -0.9940     9.4010 c3         1 0KO       0.223100
     15 N10          0.4220    -2.4440     9.5760 n3         1 0KO      -0.729600
     16 C15         -0.2860    -3.0380     8.4350 c3         1 0KO       0.151800
     17 C14         -0.2750    -4.5640     8.5680 c3         1 0KO       0.237300
     18 C11         -0.2580    -2.7490    10.8420 c3         1 0KO       0.151800
     19 C12         -0.2450    -4.2630    11.0740 c3         1 0KO       0.237300
     20 N13         -0.8130    -4.9220     9.8890 n3         1 0KO      -0.822500
     21 S16         -2.0270    -6.0380    10.0370 s6         1 0KO       1.326900
     22 C32         -1.1660    -7.6240    10.2170 c3         1 0KO      -0.248300
     23 O34         -2.6830    -5.6860    11.2480 o          1 0KO      -0.629800
     24 O33         -2.7100    -5.9810     8.7920 o          1 0KO      -0.629800
     25 C4           2.8590    -0.6220     8.4150 ca         1 0KO       0.028000
     26 C3           3.6650    -0.3810     7.3000 cp         1 0KO      -0.354800
     27 C8           5.1330    -0.2650     7.4430 cp         1 0KO       0.820500
     28 N21          5.8960    -0.0920     6.3670 nb         1 0KO      -0.840000
     29 N17          5.6940    -0.3270     8.6510 nb         1 0KO      -0.797000
     30 C18          7.0050    -0.2240     8.7780 ca         1 0KO       0.746300
     31 C22          7.6340    -0.2960    10.1450 c3         1 0KO      -0.129400
     32 N19          7.7650    -0.0580     7.7110 nb         1 0KO      -0.807000
     33 C20          7.2130     0.0110     6.5010 ca         1 0KO       0.987900
     34 N23          8.0090     0.1900     5.3880 nv         1 0KO      -1.064500
     35 H1          -0.3610    -0.8910     0.4990 h1         1 0KO       0.043700
     36 H2          -0.3610     0.8780     0.5230 h1         1 0KO       0.043700
     37 H3          -0.3610     0.0140    -1.0210 h1         1 0KO       0.043700
     38 H4           4.0230     0.0090     0.3620 ha         1 0KO       0.147000
     39 H5           5.1340     0.0070     2.5870 ha         1 0KO       0.139000
     40 H6           1.2450    -0.0010     4.3920 h4         1 0KO       0.101100
     41 H7           4.8070     0.2200     5.0290 hn         1 0KO       0.503800
     42 H8          -0.1050    -0.6720     6.8120 h4         1 0KO       0.028100
     43 H9          -0.3850    -0.5430     9.2170 h1         1 0KO       0.042200
     44 H10          1.0160    -0.5680    10.2970 h1         1 0KO       0.042200
     45 H12          0.2110    -2.7530     7.5150 h1         1 0KO       0.044950
     46 H13         -1.3100    -2.6840     8.4230 h1         1 0KO       0.044950
     47 H14          0.7410    -4.9290     8.4790 h1         1 0KO       0.061450
     48 H15         -0.8940    -5.0000     7.7930 h1         1 0KO       0.061450
     49 H16          0.2590    -2.2550    11.6570 h1         1 0KO       0.044950
     50 H17         -1.2830    -2.4010    10.7940 h1         1 0KO       0.044950
     51 H18         -0.8430    -4.5030    11.9450 h1         1 0KO       0.061450
     52 H19          0.7750    -4.5990    11.2220 h1         1 0KO       0.061450
     53 H20         -1.8860    -8.4050    10.4290 h1         1 0KO       0.096033
     54 H21         -0.6420    -7.8570     9.2970 h1         1 0KO       0.096033
     55 H22         -0.4540    -7.5580    11.0310 h1         1 0KO       0.096033
     56 H23          3.2940    -0.7300     9.4010 ha         1 0KO       0.166000
     57 H24          7.4020     0.6060    10.6980 hc         1 0KO       0.066367
     58 H25          7.2450    -1.1560    10.6780 hc         1 0KO       0.066367
     59 H26          8.7090    -0.3910    10.0440 hc         1 0KO       0.066367
     60 H27          8.3930    -0.6040     4.9150 hn         1 0KO       0.452800
     61 H28          8.2330     1.1140     5.0760 hn         1 0KO       0.452800
@<TRIPOS>BOND
     1    24    21 2
     2    22    21 1
     3    21    23 2
     4    21    20 1
     5    17    20 1
     6    17    16 1
     7    20    19 1
     8    19    18 1
     9    16    15 1
    10     4     5 ar
    11     4     3 ar
    12     2     3 1
    13     2     1 1
    14     5     8 ar
    15    15    18 1
    16    15    14 1
    17     3     6 ar
    18    12    11 ar
    19    12    13 ar
    20    11    10 ar
    21    14    13 1
    22     8     9 1
    23     8     7 ar
    24     6     7 ar
    25    13    25 ar
    26    10     9 1
    27    10    26 ar
    28    25    26 ar
    29    26    27 1
    30    27    28 ar
    31    27    29 ar
    32    28    33 ar
    33    29    30 ar
    34    33    34 1
    35    33    32 ar
    36    30    32 ar
    37    30    31 1
    38     1    35 1
    39     1    36 1
    40     1    37 1
    41     4    38 1
    42     5    39 1
    43     7    40 1
    44     9    41 1
    45    12    42 1
    46    14    43 1
    47    14    44 1
    48    16    45 1
    49    16    46 1
    50    17    47 1
    51    17    48 1
    52    18    49 1
    53    18    50 1
    54    19    51 1
    55    19    52 1
    56    22    53 1
    57    22    54 1
    58    22    55 1
    59    25    56 1
    60    31    57 1
    61    31    58 1
    62    31    59 1
    63    34    60 1
    64    34    61 1
@<TRIPOS>SUBSTRUCTURE
     1 0KO         1 TEMP              0 ****  ****    0 ROOT
