@<TRIPOS>MOLECULE
0KP
   44    47     1     0     0
SMALL
bcc


@<TRIPOS>ATOM
      1 O1          -0.4170     0.5990     0.2290 o          1 0KP      -0.593500
      2 C1           0.7650     0.4400    -0.0910 c          1 0KP       0.705500
      3 C2           1.9450    -0.0570     0.8170 c3         1 0KP       0.226800
      4 N1           3.0840    -0.1980    -0.1300 nu         1 0KP      -0.765200
      5 C3           2.6990     0.3710    -1.4050 c2         1 0KP       0.626800
      6 N2           1.2900     0.6930    -1.3630 n          1 0KP      -0.452300
      7 N3           3.5310     0.5120    -2.3920 n2         1 0KP      -0.822100
      8 C4           0.5250     0.9820    -2.5300 c3         1 0KP       0.084300
      9 C5           2.2550     0.9330     1.9230 ca         1 0KP      -0.115300
     10 C6           3.3770     0.6960     2.7300 ca         1 0KP      -0.112500
     11 C7           3.7090     1.5840     3.7500 ca         1 0KP      -0.129000
     12 C8           2.9230     2.7150     3.9770 ca         1 0KP      -0.116000
     13 C9           1.8020     2.9480     3.1840 ca         1 0KP      -0.129000
     14 C10          1.4660     2.0620     2.1590 ca         1 0KP      -0.112500
     15 C11          1.5370    -1.3800     1.4380 ca         1 0KP      -0.088300
     16 C12          0.3900    -1.3960     2.2440 ca         1 0KP      -0.098000
     17 C13         -0.0210    -2.5780     2.8530 ca         1 0KP      -0.134000
     18 C14          0.7040    -3.7530     2.6680 ca         1 0KP      -0.108000
     19 C15          1.8510    -3.7510     1.8630 cp         1 0KP      -0.048000
     20 C16          2.2630    -2.5580     1.2490 ca         1 0KP      -0.086000
     21 C17          4.1480    -7.2330     1.2970 ca         1 0KP       0.393200
     22 N4           4.7840    -6.0550     1.4510 nb         1 0KP      -0.663000
     23 C18          4.0260    -4.9580     1.6280 ca         1 0KP       0.404200
     24 C19          2.6120    -4.9780     1.6630 cp         1 0KP      -0.148300
     25 C20          1.9740    -6.2170     1.5010 ca         1 0KP      -0.085000
     26 C21          2.7480    -7.3620     1.3150 ca         1 0KP      -0.245300
     27 H1           3.1350     0.8460    -3.2440 hn         1 0KP       0.404400
     28 H3           0.6090     0.1490    -3.2800 h1         1 0KP       0.053700
     29 H4          -0.5530     1.1090    -2.2400 h1         1 0KP       0.053700
     30 H5           0.8940     1.9330    -3.0020 h1         1 0KP       0.053700
     31 H6           3.9890    -0.2060     2.5710 ha         1 0KP       0.146000
     32 H7           4.5910     1.3900     4.3790 ha         1 0KP       0.138000
     33 H8           3.1860     3.4160     4.7830 ha         1 0KP       0.136000
     34 H9           1.1740     3.8340     3.3630 ha         1 0KP       0.138000
     35 H10          0.5680     2.2590     1.5520 ha         1 0KP       0.146000
     36 H11         -0.1930    -0.4690     2.3790 ha         1 0KP       0.156000
     37 H12         -0.9220    -2.5830     3.4840 ha         1 0KP       0.138000
     38 H13          0.3800    -4.6840     3.1580 ha         1 0KP       0.135000
     39 H14          3.1590    -2.5780     0.6080 ha         1 0KP       0.155000
     40 H16          4.5760    -4.0080     1.7550 h4         1 0KP       0.024100
     41 H17          0.8750    -6.2810     1.5140 ha         1 0KP       0.141000
     42 H18          2.2790    -8.3450     1.1820 ha         1 0KP       0.144000
     43 H19          3.9480     0.1640     0.2230 hn         1 0KP       0.421800
     44 H15          4.7980    -8.1140     1.1520 h4         1 0KP       0.022100
@<TRIPOS>BOND
     1     1     2 2   
     2     2     3 1   
     3     2     6 1   
     4     3     4 1   
     5     3     9 1   
     6     3    15 1   
     7     4     5 1   
     8     4    43 1   
     9     5     6 1   
    10     5     7 2   
    11     6     8 1   
    12     7    27 1   
    13     8    28 1   
    14     8    29 1   
    15     8    30 1   
    16     9    10 ar  
    17     9    14 ar  
    18    10    11 ar  
    19    10    31 1   
    20    11    12 ar  
    21    11    32 1   
    22    12    13 ar  
    23    12    33 1   
    24    13    14 ar  
    25    13    34 1   
    26    14    35 1   
    27    15    16 ar  
    28    15    20 ar  
    29    16    17 ar  
    30    16    36 1   
    31    17    18 ar  
    32    17    37 1   
    33    18    19 ar  
    34    18    38 1   
    35    19    20 ar  
    36    19    24 1   
    37    20    39 1   
    38    21    22 ar  
    39    21    26 ar  
    40    21    44 1   
    41    22    23 ar  
    42    23    24 ar  
    43    23    40 1   
    44    24    25 ar  
    45    25    26 ar  
    46    25    41 1   
    47    26    42 1   
@<TRIPOS>SUBSTRUCTURE
     1 0KP         1 TEMP              0 ****  ****    0 ROOT
