@<TRIPOS>MOLECULE
0KP
   44    47     1     0     0
SMALL
bcc


@<TRIPOS>ATOM
      1 O1           0.0000     0.0000     0.0000 o          1 0KP      -0.635500
      2 C1           1.2130     0.0000     0.0000 c          1 0KP       0.636500
      3 C2           2.1180     0.0000     1.2130 c3         1 0KP       0.153800
      4 N1           3.4790    -0.0010     0.6540 nu         1 0KP      -0.549200
      5 C3           3.3420    -0.0000    -0.7120 c2         1 0KP       0.398800
      6 N2           2.0180    -0.0060    -1.0800 n          1 0KP       0.004700
      7 N3           4.3360    -0.0000    -1.5520 n2         1 0KP      -0.791100
      8 C4           1.5430    -0.0140    -2.4650 c3         1 0KP       0.087300
      9 C5           1.8900     1.2380     2.0400 ca         1 0KP      -0.103300
     10 C6           2.9680     1.9680     2.5060 ca         1 0KP      -0.093000
     11 C7           2.7580     3.1030     3.2650 ca         1 0KP      -0.095500
     12 C8           1.4700     3.5090     3.5600 ca         1 0KP      -0.093000
     13 C9           0.3920     2.7790     3.0950 ca         1 0KP      -0.095500
     14 C10          0.6010     1.6480     2.3310 ca         1 0KP      -0.093000
     15 C11          1.8890    -1.2380     2.0410 ca         1 0KP      -0.095300
     16 C12          0.6090    -1.5710     2.4450 ca         1 0KP      -0.082000
     17 C13          0.3910    -2.7100     3.2010 ca         1 0KP      -0.091000
     18 C14          1.4500    -3.5190     3.5550 ca         1 0KP      -0.093000
     19 C15          2.7420    -3.1890     3.1500 cp         1 0KP      -0.025000
     20 C16          2.9560    -2.0410     2.3890 ca         1 0KP      -0.095000
     21 C17          6.0340    -5.5950     4.1840 ca         1 0KP       0.402200
     22 N4           6.1970    -4.5010     3.4650 nb         1 0KP      -0.578000
     23 C18          5.1800    -3.7330     3.1290 ca         1 0KP       0.402200
     24 C19          3.8860    -4.0560     3.5290 cp         1 0KP      -0.147300
     25 C20          3.6800    -5.2070     4.2920 ca         1 0KP      -0.068000
     26 C21          4.7800    -5.9850     4.6150 ca         1 0KP      -0.215300
     27 H1           5.2780     0.0020    -1.2130 hn         1 0KP       0.333400
     28 H3           1.9730    -0.8590    -2.9890 h1         1 0KP       0.023367
     29 H4           1.8420     0.9050    -2.9550 h1         1 0KP       0.023367
     30 H5           0.4630    -0.0940    -2.4760 h1         1 0KP       0.023367
     31 H6           3.9770     1.6490     2.2740 ha         1 0KP       0.119000
     32 H7           3.6040     3.6740     3.6290 ha         1 0KP       0.105000
     33 H8           1.3060     4.3980     4.1580 ha         1 0KP       0.104000
     34 H9          -0.6170     3.0990     3.3250 ha         1 0KP       0.105000
     35 H10         -0.2440     1.0770     1.9670 ha         1 0KP       0.119000
     36 H11         -0.2260    -0.9380     2.1690 ha         1 0KP       0.135000
     37 H12         -0.6140    -2.9660     3.5150 ha         1 0KP       0.107000
     38 H13          1.2770    -4.4100     4.1460 ha         1 0KP       0.111000
     39 H14          3.9590    -1.7800     2.0720 ha         1 0KP       0.113000
     40 H16          5.3530    -2.8430     2.5370 h4         1 0KP      -0.017900
     41 H17          2.6860    -5.4890     4.6170 ha         1 0KP       0.117000
     42 H18          4.6600    -6.8860     5.2050 ha         1 0KP       0.113000
     43 H19          4.3380    -0.0000     1.1690 hn         1 0KP       0.339800
     44 H15          6.8970    -6.2000     4.4370 h4         1 0KP      -0.019900
@<TRIPOS>BOND
     1     1     2 2   
     2     2     3 1   
     3     2     6 1   
     4     3     4 1   
     5     3     9 1   
     6     3    15 1   
     7     4     5 1   
     8     4    43 1   
     9     5     6 1   
    10     5     7 2   
    11     6     8 1   
    12     7    27 1   
    13     8    28 1   
    14     8    29 1   
    15     8    30 1   
    16     9    10 ar  
    17     9    14 ar  
    18    10    11 ar  
    19    10    31 1   
    20    11    12 ar  
    21    11    32 1   
    22    12    13 ar  
    23    12    33 1   
    24    13    14 ar  
    25    13    34 1   
    26    14    35 1   
    27    15    16 ar  
    28    15    20 ar  
    29    16    17 ar  
    30    16    36 1   
    31    17    18 ar  
    32    17    37 1   
    33    18    19 ar  
    34    18    38 1   
    35    19    20 ar  
    36    19    24 1   
    37    20    39 1   
    38    21    22 ar  
    39    21    26 ar  
    40    21    44 1   
    41    22    23 ar  
    42    23    24 ar  
    43    23    40 1   
    44    24    25 ar  
    45    25    26 ar  
    46    25    41 1   
    47    26    42 1   
@<TRIPOS>SUBSTRUCTURE
     1 0KP         1 TEMP              0 ****  ****    0 ROOT
