@<TRIPOS>MOLECULE
molecule
   44    47     1     0     0
SMALL
bcc


@<TRIPOS>ATOM
      1 O1           0.0000     0.0000     0.0000 o          1 0KP      -0.597500
      2 C1           1.2130     0.0000     0.0000 c          1 0KP       0.721500
      3 C2           2.1180     0.0000     1.2130 c3         1 0KP       0.254800
      4 N1           3.4790    -0.0010     0.6540 nu         1 0KP      -0.882200
      5 C3           3.3420    -0.0000    -0.7120 c2         1 0KP       0.697800
      6 N2           2.0180    -0.0060    -1.0800 n          1 0KP      -0.439300
      7 N3           4.3360    -0.0000    -1.5520 n2         1 0KP      -0.914100
      8 C4           1.5430    -0.0140    -2.4650 c3         1 0KP       0.101300
      9 C5           1.8900     1.2380     2.0400 ca         1 0KP      -0.098300
     10 C6           2.9680     1.9680     2.5060 ca         1 0KP      -0.108000
     11 C7           2.7580     3.1030     3.2650 ca         1 0KP      -0.127000
     12 C8           1.4700     3.5090     3.5600 ca         1 0KP      -0.119000
     13 C9           0.3920     2.7790     3.0950 ca         1 0KP      -0.127000
     14 C10          0.6010     1.6480     2.3310 ca         1 0KP      -0.108000
     15 C11          1.8890    -1.2380     2.0410 ca         1 0KP      -0.092300
     16 C12          0.6090    -1.5710     2.4450 ca         1 0KP      -0.103000
     17 C13          0.3910    -2.7100     3.2010 ca         1 0KP      -0.124000
     18 C14          1.4500    -3.5190     3.5550 ca         1 0KP      -0.112000
     19 C15          2.7420    -3.1890     3.1500 cp         1 0KP      -0.035000
     20 C16          2.9560    -2.0410     2.3890 ca         1 0KP      -0.100000
     21 C17          6.0340    -5.5950     4.1840 ca         1 0KP       0.418200
     22 N4           6.1970    -4.5010     3.4650 nb         1 0KP      -0.685000
     23 C18          5.1800    -3.7330     3.1290 ca         1 0KP       0.427200
     24 C19          3.8860    -4.0560     3.5290 cp         1 0KP      -0.158300
     25 C20          3.6800    -5.2070     4.2920 ca         1 0KP      -0.086000
     26 C21          4.7800    -5.9850     4.6150 ca         1 0KP      -0.251300
     27 H1           4.1590    -0.0020    -2.5370 hn         1 0KP       0.412400
     28 H3           1.9210    -0.8940    -2.9710 h1         1 0KP       0.055700
     29 H4           1.8980     0.8750    -2.9730 h1         1 0KP       0.055700
     30 H5           0.4600    -0.0280    -2.4750 h1         1 0KP       0.055700
     31 H6           3.9770     1.6490     2.2740 ha         1 0KP       0.142000
     32 H7           3.6040     3.6740     3.6290 ha         1 0KP       0.133500
     33 H8           1.3060     4.3980     4.1580 ha         1 0KP       0.132000
     34 H9          -0.6170     3.0990     3.3250 ha         1 0KP       0.133500
     35 H10         -0.2440     1.0770     1.9670 ha         1 0KP       0.142000
     36 H11         -0.2260    -0.9380     2.1690 ha         1 0KP       0.154000
     37 H12         -0.6140    -2.9660     3.5150 ha         1 0KP       0.137000
     38 H13          1.2770    -4.4100     4.1460 ha         1 0KP       0.134000
     39 H14          3.9590    -1.7800     2.0720 ha         1 0KP       0.136000
     40 H16          5.3530    -2.8430     2.5370 h4         1 0KP       0.025100
     41 H17          2.6860    -5.4890     4.6170 ha         1 0KP       0.141000
     42 H18          4.6600    -6.8860     5.2050 ha         1 0KP       0.139000
     43 H19          4.3380    -0.0010     1.1690 hn         1 0KP       0.492800
     44 H15          6.8970    -6.2000     4.4370 h4         1 0KP       0.024100
@<TRIPOS>BOND
     1    17    18 ar  
     2    17    16 ar  
     3    18    19 ar  
     4    16    15 ar  
     5    19    24 1   
     6    19    20 ar  
     7    12    13 ar  
     8    12    11 ar  
     9    25    24 ar  
    10    25    26 ar  
    11    13    14 ar  
    12    11    10 ar  
    13    24    23 ar  
    14    15    20 ar  
    15    15     3 1   
    16    26    21 ar  
    17    14     9 ar  
    18    10     9 ar  
    19     9     3 1   
    20    23    22 ar  
    21    21    22 ar  
    22     3     4 1   
    23     3     2 1   
    24     1     2 2   
    25     4     5 1   
    26     2     6 1   
    27     5     6 1   
    28     5     7 2   
    29     6     8 1   
    30     7    27 1   
    31     8    28 1   
    32     8    29 1   
    33     8    30 1   
    34    10    31 1   
    35    11    32 1   
    36    12    33 1   
    37    13    34 1   
    38    14    35 1   
    39    16    36 1   
    40    17    37 1   
    41    18    38 1   
    42    20    39 1   
    43    21    44 1   
    44    23    40 1   
    45    25    41 1   
    46    26    42 1   
    47     4    43 1   
@<TRIPOS>SUBSTRUCTURE
     1 0KP         1 TEMP              0 ****  ****    0 ROOT
