@<TRIPOS>MOLECULE
0KQ
   41    44     1     0     0
SMALL
bcc


@<TRIPOS>ATOM
      1 C1          -0.0730     0.0180     0.0680 c          1 0KQ       0.702500
      2 C2           1.4990    -0.0040     0.0790 c3         1 0KQ       0.203500
      3 N1           1.8510     0.0080     1.5200 nu         1 0KQ      -0.762200
      4 C3           0.6390    -0.2070     2.2880 c2         1 0KQ       0.622800
      5 N2          -0.4960    -0.1120     1.3970 n          1 0KQ      -0.460300
      6 N3           0.6450    -0.4080     3.5710 n2         1 0KQ      -0.828100
      7 C4          -1.8450    -0.0630     1.8510 c3         1 0KQ       0.086300
      8 O1          -0.8090     0.1000    -0.9160 o          1 0KQ      -0.577500
      9 C5           2.0130     1.2570    -0.5830 ca         1 0KQ      -0.068300
     10 C6           1.9110    -1.2470    -0.6850 cx         1 0KQ      -0.152700
     11 C7           2.9220     1.2100    -1.6430 ca         1 0KQ      -0.101000
     12 C8           3.3660     2.3930    -2.2340 ca         1 0KQ      -0.133000
     13 C9           2.9190     3.6260    -1.7710 ca         1 0KQ      -0.104000
     14 C10          2.0180     3.6870    -0.6980 cp         1 0KQ      -0.043000
     15 C11          1.5700     2.4970    -0.1090 ca         1 0KQ      -0.083000
     16 C12          1.5520     4.9750    -0.1980 cp         1 0KQ      -0.139300
     17 C13          1.2430     6.0290    -1.0890 ca         1 0KQ       0.403200
     18 C15          0.6660     7.4520     0.6290 ca         1 0KQ       0.403200
     19 C16          1.3960     5.2080     1.1760 ca         1 0KQ      -0.081000
     20 N5           0.8110     7.2390    -0.6910 nb         1 0KQ      -0.653000
     21 C17          3.2660    -1.8810    -0.5140 cx         1 0KQ      -0.127400
     22 C18          2.0430    -2.5970    -0.0300 cx         1 0KQ      -0.127400
     23 C19          0.9460     6.4640     1.5970 ca         1 0KQ      -0.105900
     24 Cl1          0.7410     6.8020     3.2420 cl         1 0KQ      -0.073400
     25 H1          -0.2530    -0.4630     4.0020 hn         1 0KQ       0.404400
     26 H3          -1.9950     0.8050     2.5500 h1         1 0KQ       0.053033
     27 H4          -2.1060    -1.0120     2.3940 h1         1 0KQ       0.053033
     28 H5          -2.5250     0.0540     0.9650 h1         1 0KQ       0.053033
     29 H6           1.4740    -1.2180    -1.7080 hc         1 0KQ       0.111700
     30 H7           3.2990     0.2460    -2.0190 ha         1 0KQ       0.141000
     31 H8           4.0790     2.3480    -3.0720 ha         1 0KQ       0.137000
     32 H9           3.2790     4.5550    -2.2380 ha         1 0KQ       0.139000
     33 H10          0.8600     2.5420     0.7310 ha         1 0KQ       0.143000
     34 H11          1.3420     5.8880    -2.1810 h4         1 0KQ       0.030100
     35 H12          0.3100     8.4560     0.9240 h4         1 0KQ       0.037100
     36 H13          1.6310     4.4180     1.9070 ha         1 0KQ       0.160000
     37 H14          3.9780    -1.4630     0.2200 hc         1 0KQ       0.078950
     38 H15          3.7880    -2.2530    -1.4150 hc         1 0KQ       0.078950
     39 H16          1.6800    -3.4810    -0.5860 hc         1 0KQ       0.078950
     40 H17          1.8730    -2.7110     1.0560 hc         1 0KQ       0.078950
     41 H18          2.5990    -0.6080     1.7670 hn         1 0KQ       0.419800
@<TRIPOS>BOND
     1     1     2 1   
     2     1     5 1   
     3     1     8 2   
     4     2     3 1   
     5     2     9 1   
     6     2    10 1   
     7     3     4 1   
     8     3    41 1   
     9     4     5 1   
    10     4     6 2   
    11     5     7 1   
    12     6    25 1   
    13     7    26 1   
    14     7    27 1   
    15     7    28 1   
    16     9    11 ar  
    17     9    15 ar  
    18    10    21 1   
    19    10    22 1   
    20    10    29 1   
    21    11    12 ar  
    22    11    30 1   
    23    12    13 ar  
    24    12    31 1   
    25    13    14 ar  
    26    13    32 1   
    27    14    15 ar  
    28    14    16 1   
    29    15    33 1   
    30    16    17 ar  
    31    16    19 ar  
    32    17    20 ar  
    33    17    34 1   
    34    18    20 ar  
    35    18    23 ar  
    36    18    35 1   
    37    19    23 ar  
    38    19    36 1   
    39    21    22 1   
    40    21    37 1   
    41    21    38 1   
    42    22    39 1   
    43    22    40 1   
    44    23    24 1   
@<TRIPOS>SUBSTRUCTURE
     1 0KQ         1 TEMP              0 ****  ****    0 ROOT
