@<TRIPOS>MOLECULE
0KQ
   41    44     1     0     0
SMALL
bcc


@<TRIPOS>ATOM
      1 C1           0.0000     0.0000     0.0000 c          1 0KQ       0.633500
      2 C2           1.5130     0.0000     0.0000 c3         1 0KQ       0.130500
      3 N1           1.8800     0.0000     1.4260 nu         1 0KQ      -0.554200
      4 C3           0.7020     0.0000     2.1320 c2         1 0KQ       0.397800
      5 N2          -0.3830    -0.0000     1.2900 n          1 0KQ      -0.002300
      6 N3           0.6250    -0.0010     3.4310 n2         1 0KQ      -0.792100
      7 C4          -1.7780     0.0000     1.7380 c3         1 0KQ       0.088300
      8 O1          -0.7240     0.0050    -0.9720 o          1 0KQ      -0.623500
      9 C5           2.0400     1.2380    -0.6790 ca         1 0KQ      -0.096300
     10 C6           2.0480    -1.2570    -0.6890 cx         1 0KQ      -0.115700
     11 C7           2.7400     2.1820     0.0530 ca         1 0KQ      -0.098000
     12 C8           3.2310     3.3180    -0.5650 ca         1 0KQ      -0.092000
     13 C9           3.0250     3.5170    -1.9150 ca         1 0KQ      -0.091000
     14 C10          2.3210     2.5700    -2.6570 cp         1 0KQ      -0.028000
     15 C11          1.8300     1.4270    -2.0300 ca         1 0KQ      -0.071000
     16 C12          2.0960     2.7780    -4.1080 cp         1 0KQ      -0.139300
     17 C13          1.3890     1.8390    -4.8570 ca         1 0KQ       0.406200
     18 C15          1.6410     3.0880    -6.7770 ca         1 0KQ       0.406200
     19 C16          2.5860     3.9210    -4.7450 ca         1 0KQ      -0.070000
     20 N5           1.1880     2.0220    -6.1450 nb         1 0KQ      -0.565000
     21 C17          3.0950    -2.0830     0.0610 cx         1 0KQ      -0.075400
     22 C18          1.6660    -2.6100    -0.0860 cx         1 0KQ      -0.075400
     23 C19          2.3490     4.0690    -6.1030 ca         1 0KQ      -0.158900
     24 Cl1          2.9380     5.4640    -6.9500 cl         1 0KQ      -0.006400
     25 H1           1.4600    -0.0010     3.9820 hn         1 0KQ       0.332400
     26 H3          -2.4340    -0.0100     0.8770 h1         1 0KQ       0.023033
     27 H4          -1.9620    -0.8790     2.3440 h1         1 0KQ       0.023033
     28 H5          -1.9680     0.8900     2.3260 h1         1 0KQ       0.023033
     29 H6           2.1590    -1.2560    -1.7670 hc         1 0KQ       0.078700
     30 H7           2.9040     2.0300     1.1130 ha         1 0KQ       0.107000
     31 H8           3.7780     4.0540     0.0120 ha         1 0KQ       0.106000
     32 H9           3.4100     4.4070    -2.3970 ha         1 0KQ       0.112000
     33 H10          1.2820     0.6880    -2.6020 ha         1 0KQ       0.134000
     34 H11          1.0000     0.9510    -4.3740 h4         1 0KQ      -0.004900
     35 H12          1.4540     3.1990    -7.8380 h4         1 0KQ      -0.009900
     36 H13          3.1360     4.6720    -4.1930 ha         1 0KQ       0.126000
     37 H14          3.3590    -1.7190     1.0460 hc         1 0KQ       0.049200
     38 H15          3.8380    -2.5690    -0.5590 hc         1 0KQ       0.049200
     39 H16          1.0580    -2.5680     0.8090 hc         1 0KQ       0.049200
     40 H17          1.5370    -3.4190    -0.7950 hc         1 0KQ       0.049200
     41 H18          2.8060     0.0040     1.8060 hn         1 0KQ       0.341800
@<TRIPOS>BOND
     1     1     2 1   
     2     1     5 1   
     3     1     8 2   
     4     2     3 1   
     5     2     9 1   
     6     2    10 1   
     7     3     4 1   
     8     3    41 1   
     9     4     5 1   
    10     4     6 2   
    11     5     7 1   
    12     6    25 1   
    13     7    26 1   
    14     7    27 1   
    15     7    28 1   
    16     9    11 ar  
    17     9    15 ar  
    18    10    21 1   
    19    10    22 1   
    20    10    29 1   
    21    11    12 ar  
    22    11    30 1   
    23    12    13 ar  
    24    12    31 1   
    25    13    14 ar  
    26    13    32 1   
    27    14    15 ar  
    28    14    16 1   
    29    15    33 1   
    30    16    17 ar  
    31    16    19 ar  
    32    17    20 ar  
    33    17    34 1   
    34    18    20 ar  
    35    18    23 ar  
    36    18    35 1   
    37    19    23 ar  
    38    19    36 1   
    39    21    22 1   
    40    21    37 1   
    41    21    38 1   
    42    22    39 1   
    43    22    40 1   
    44    23    24 1   
@<TRIPOS>SUBSTRUCTURE
     1 0KQ         1 TEMP              0 ****  ****    0 ROOT
