@<TRIPOS>MOLECULE
molecule
   41    44     1     0     0
SMALL
bcc


@<TRIPOS>ATOM
      1 C1           0.0000     0.0000     0.0000 c          1 0KQ       0.717500
      2 C2           1.5130     0.0000     0.0000 c3         1 0KQ       0.236500
      3 N1           1.8800     0.0000     1.4260 nu         1 0KQ      -0.885200
      4 C3           0.7020     0.0000     2.1320 c2         1 0KQ       0.693800
      5 N2          -0.3830    -0.0000     1.2900 n          1 0KQ      -0.444300
      6 N3           0.6250    -0.0010     3.4310 n2         1 0KQ      -0.916100
      7 C4          -1.7780     0.0000     1.7380 c3         1 0KQ       0.101300
      8 O1          -0.7240     0.0050    -0.9720 o          1 0KQ      -0.585500
      9 C5           2.0400     1.2380    -0.6790 ca         1 0KQ      -0.092300
     10 C6           2.0480    -1.2570    -0.6890 cx         1 0KQ      -0.144700
     11 C7           2.7400     2.1820     0.0530 ca         1 0KQ      -0.106000
     12 C8           3.2310     3.3180    -0.5650 ca         1 0KQ      -0.125000
     13 C9           3.0250     3.5170    -1.9150 ca         1 0KQ      -0.110000
     14 C10          2.3210     2.5700    -2.6570 cp         1 0KQ      -0.038000
     15 C11          1.8300     1.4270    -2.0300 ca         1 0KQ      -0.093000
     16 C12          2.0960     2.7780    -4.1080 cp         1 0KQ      -0.147300
     17 C13          1.3890     1.8390    -4.8570 ca         1 0KQ       0.428200
     18 C15          1.6410     3.0880    -6.7770 ca         1 0KQ       0.428200
     19 C16          2.5860     3.9210    -4.7450 ca         1 0KQ      -0.084000
     20 N5           1.1880     2.0220    -6.1450 nb         1 0KQ      -0.673000
     21 C17          3.0950    -2.0830     0.0610 cx         1 0KQ      -0.124400
     22 C18          1.6660    -2.6100    -0.0860 cx         1 0KQ      -0.124400
     23 C19          2.3490     4.0690    -6.1030 ca         1 0KQ      -0.096900
     24 Cl1          2.9380     5.4640    -6.9500 cl         1 0KQ      -0.096400
     25 H1          -0.2700    -0.0010     3.8790 hn         1 0KQ       0.412400
     26 H3          -1.9680     0.8900     2.3260 h1         1 0KQ       0.055367
     27 H4          -2.4340    -0.0100     0.8770 h1         1 0KQ       0.055367
     28 H5          -1.9620    -0.8790     2.3440 h1         1 0KQ       0.055367
     29 H6           2.1590    -1.2560    -1.7670 hc         1 0KQ       0.100700
     30 H7           2.9040     2.0300     1.1130 ha         1 0KQ       0.141000
     31 H8           3.7780     4.0540     0.0120 ha         1 0KQ       0.137000
     32 H9           3.4100     4.4070    -2.3970 ha         1 0KQ       0.135000
     33 H10          1.2820     0.6880    -2.6020 ha         1 0KQ       0.150000
     34 H11          1.0000     0.9510    -4.3740 h4         1 0KQ       0.036100
     35 H12          1.4540     3.1990    -7.8380 h4         1 0KQ       0.036100
     36 H13          3.1360     4.6720    -4.1930 ha         1 0KQ       0.153000
     37 H14          3.8380    -2.5690    -0.5590 hc         1 0KQ       0.079700
     38 H15          3.3590    -1.7190     1.0460 hc         1 0KQ       0.079700
     39 H16          1.5370    -3.4190    -0.7950 hc         1 0KQ       0.079700
     40 H17          1.0580    -2.5680     0.8090 hc         1 0KQ       0.079700
     41 H18          2.8060     0.0040     1.8060 hn         1 0KQ       0.494800
@<TRIPOS>BOND
     1    12    13 ar  
     2    12    11 ar  
     3    13    14 ar  
     4    11     9 ar  
     5    17    20 ar  
     6    17    16 ar  
     7    14    16 1   
     8    14    15 ar  
     9    20    18 ar  
    10    16    19 ar  
    11     9    15 ar  
    12     9     2 1   
    13    21    10 1   
    14    21    22 1   
    15    10     2 1   
    16    10    22 1   
    17    18    23 ar  
    18    19    23 ar  
    19     2     3 1   
    20     2     1 1   
    21    23    24 1   
    22     8     1 2   
    23     3     4 1   
    24     1     5 1   
    25     4     5 1   
    26     4     6 2   
    27     5     7 1   
    28     6    25 1   
    29     7    26 1   
    30     7    27 1   
    31     7    28 1   
    32    10    29 1   
    33    11    30 1   
    34    12    31 1   
    35    13    32 1   
    36    15    33 1   
    37    17    34 1   
    38    18    35 1   
    39    19    36 1   
    40    21    37 1   
    41    21    38 1   
    42    22    39 1   
    43    22    40 1   
    44     3    41 1   
@<TRIPOS>SUBSTRUCTURE
     1 0KQ         1 TEMP              0 ****  ****    0 ROOT
