@<TRIPOS>MOLECULE
0KR
   46    49     1     0     0
SMALL
bcc


@<TRIPOS>ATOM
      1 C1           0.0330     0.0150     0.0680 c3         1 0KR       0.203500
      2 N1           1.5160     0.0290     0.0230 nu         1 0KR      -0.762200
      3 C2           2.0150    -0.0310     1.3830 c2         1 0KR       0.623800
      4 N2           0.9070     0.1600     2.2910 n          1 0KR      -0.460300
      5 C3          -0.3050     0.2080     1.5910 c          1 0KR       0.702500
      6 C4          -0.6230    -1.2860    -0.3510 cx         1 0KR      -0.151700
      7 O1          -1.4210     0.3420     2.0940 o          1 0KR      -0.577500
      8 C5          -0.5130     1.1940    -0.7100 ca         1 0KR      -0.069300
      9 C6          -0.1420     2.4880    -0.3250 ca         1 0KR      -0.084000
     10 C7          -0.6300     3.6050    -1.0150 cp         1 0KR      -0.038000
     11 C8          -1.4990     3.4170    -2.1000 ca         1 0KR      -0.106000
     12 C9          -1.8590     2.1300    -2.4870 ca         1 0KR      -0.133000
     13 C10         -1.3670     1.0190    -1.8020 ca         1 0KR      -0.103000
     14 N3           3.2720    -0.1950     1.6650 n2         1 0KR      -0.829100
     15 C11          1.0710     0.3800     3.6890 c3         1 0KR       0.087300
     16 C12          0.0540    -2.6230    -0.1940 cx         1 0KR      -0.127400
     17 C13         -0.1710    -2.0570    -1.5630 cx         1 0KR      -0.127400
     18 C14         -0.2370     4.9490    -0.6080 cp         1 0KR      -0.152300
     19 C15          1.0750     5.2340    -0.2100 ca         1 0KR      -0.067000
     20 C16          1.4070     6.5450     0.1710 ca         1 0KR      -0.080300
     21 C17          0.3870     7.5280     0.1340 ca         1 0KR       0.414200
     22 C19         -1.1760     6.0070    -0.6060 ca         1 0KR       0.408200
     23 C21          2.7080     6.8780     0.5750 cg         1 0KR      -0.134000
     24 N5          -0.8760     7.2680    -0.2440 nb         1 0KR      -0.664000
     25 C22          3.8200     7.1650     0.9190 c1         1 0KR      -0.100100
     26 C23          5.1420     7.5050     1.3270 c3         1 0KR      -0.022000
     27 H1          -1.7130    -1.2380    -0.1390 hc         1 0KR       0.111700
     28 H2           0.5370     2.6330     0.5300 ha         1 0KR       0.143000
     29 H3          -1.8860     4.2880    -2.6500 ha         1 0KR       0.138000
     30 H4          -2.5350     1.9850    -3.3430 ha         1 0KR       0.136000
     31 H5          -1.6570     0.0100    -2.1340 ha         1 0KR       0.139000
     32 H6           3.5060    -0.1390     2.6330 hn         1 0KR       0.403400
     33 H8           0.0620     0.5450     4.1540 h1         1 0KR       0.053033
     34 H9           1.7160     1.2820     3.8750 h1         1 0KR       0.053033
     35 H10          1.5550    -0.5140     4.1680 h1         1 0KR       0.053033
     36 H11          1.0810    -2.6880     0.2070 hc         1 0KR       0.078950
     37 H12         -0.5610    -3.4780     0.1430 hc         1 0KR       0.078950
     38 H13          0.6920    -1.6970    -2.1510 hc         1 0KR       0.078950
     39 H14         -0.9420    -2.5090    -2.2130 hc         1 0KR       0.078950
     40 H15          1.8410     4.4430    -0.2020 ha         1 0KR       0.153000
     41 H16          0.6030     8.5720     0.4240 h4         1 0KR       0.030100
     42 H17         -2.2250     5.8280    -0.9030 h4         1 0KR       0.027100
     43 H18          5.1350     7.9420     2.3600 hc         1 0KR       0.059033
     44 H19          5.7980     6.5960     1.3320 hc         1 0KR       0.059033
     45 H20          5.5880     8.2590     0.6270 hc         1 0KR       0.059033
     46 H21          1.9160    -0.6560    -0.5850 hn         1 0KR       0.419800
@<TRIPOS>BOND
     1     1     2 1   
     2     1     5 1   
     3     1     6 1   
     4     1     8 1   
     5     2     3 1   
     6     2    46 1   
     7     3     4 1   
     8     3    14 2   
     9     4     5 1   
    10     4    15 1   
    11     5     7 2   
    12     6    16 1   
    13     6    17 1   
    14     6    27 1   
    15     8     9 ar  
    16     8    13 ar  
    17     9    10 ar  
    18     9    28 1   
    19    10    11 ar  
    20    10    18 1   
    21    11    12 ar  
    22    11    29 1   
    23    12    13 ar  
    24    12    30 1   
    25    13    31 1   
    26    14    32 1   
    27    15    33 1   
    28    15    34 1   
    29    15    35 1   
    30    16    17 1   
    31    16    36 1   
    32    16    37 1   
    33    17    38 1   
    34    17    39 1   
    35    18    19 ar  
    36    18    22 ar  
    37    19    20 ar  
    38    19    40 1   
    39    20    21 ar  
    40    20    23 1   
    41    21    24 ar  
    42    21    41 1   
    43    22    24 ar  
    44    22    42 1   
    45    23    25 3   
    46    25    26 1   
    47    26    43 1   
    48    26    44 1   
    49    26    45 1   
@<TRIPOS>SUBSTRUCTURE
     1 0KR         1 TEMP              0 ****  ****    0 ROOT
