@<TRIPOS>MOLECULE
0KR
   46    49     1     0     0
SMALL
bcc


@<TRIPOS>ATOM
      1 C1           0.0000     0.0000     0.0000 c3         1 0KR       0.116500
      2 N1           1.4720     0.0000     0.0000 nu         1 0KR      -0.565200
      3 C2           1.8640     0.0000     1.3160 c2         1 0KR       0.397800
      4 N2           0.7810     0.0010     2.1580 n          1 0KR      -0.000300
      5 C3          -0.3760     0.0010     1.4660 c          1 0KR       0.623500
      6 C4          -0.5360    -1.2570    -0.6880 cx         1 0KR      -0.232700
      7 O1          -1.4960     0.0010     1.9280 o          1 0KR      -0.626500
      8 C5          -0.5260     1.2390    -0.6780 ca         1 0KR      -0.078300
      9 C6           0.3490     2.1200    -1.2800 ca         1 0KR      -0.102000
     10 C7          -0.1380     3.2630    -1.9070 cp         1 0KR      -0.029000
     11 C8          -1.5100     3.5120    -1.9240 ca         1 0KR      -0.094000
     12 C9          -2.3760     2.6240    -1.3200 ca         1 0KR      -0.095000
     13 C10         -1.8870     1.4870    -0.7020 ca         1 0KR      -0.060000
     14 N3           3.1040    -0.0010     1.7120 n2         1 0KR      -0.791100
     15 C11          0.8690     0.0010     3.6210 c3         1 0KR       0.087300
     16 C12         -0.0470    -2.6100    -0.1670 cx         1 0KR      -0.087900
     17 C13          0.4510    -2.0840    -1.5150 cx         1 0KR      -0.087900
     18 C14          0.7980     4.2150    -2.5560 cp         1 0KR      -0.143300
     19 C15          0.3180     5.3630    -3.1860 ca         1 0KR      -0.061000
     20 C16          1.2420     6.2260    -3.7800 ca         1 0KR      -0.049300
     21 C17          2.6000     5.9080    -3.7200 ca         1 0KR       0.411200
     22 C19          2.1720     3.9780    -2.5370 ca         1 0KR       0.399200
     23 C21          0.8030     7.4180    -4.4410 cg         1 0KR      -0.143000
     24 N5           3.0110     4.8130    -3.1140 nb         1 0KR      -0.578000
     25 C22          0.4390     8.3840    -4.9990 c1         1 0KR      -0.104100
     26 C23          0.1190     9.6950    -5.1320 c3         1 0KR       0.105000
     27 H1          -1.1490    -1.7830     0.0330 hc         1 0KR       0.194700
     28 H2           1.4140     1.9210    -1.2640 ha         1 0KR       0.112000
     29 H3          -1.8930     4.4000    -2.4120 ha         1 0KR       0.111000
     30 H4          -3.4430     2.8150    -1.3320 ha         1 0KR       0.107000
     31 H5          -2.5730     0.7910    -0.2340 ha         1 0KR       0.128000
     32 H6           3.8450    -0.0190     1.0400 hn         1 0KR       0.333400
     33 H8          -0.1250    -0.0890     4.0430 h1         1 0KR       0.023700
     34 H9           1.4760    -0.8350     3.9460 h1         1 0KR       0.023700
     35 H10          1.3210     0.9270     3.9550 h1         1 0KR       0.023700
     36 H11         -0.8010    -3.2300     0.3030 hc         1 0KR       0.061450
     37 H12          0.9760    -2.6320     0.1890 hc         1 0KR       0.061450
     38 H13          1.3850    -1.5920    -1.7570 hc         1 0KR       0.061450
     39 H14          0.0050    -2.7820    -2.2130 hc         1 0KR       0.061450
     40 H15         -0.7460     5.5660    -3.2050 ha         1 0KR       0.124000
     41 H16          3.3300     6.5660    -4.1750 h4         1 0KR      -0.013900
     42 H17          2.5610     3.0930    -2.0470 h4         1 0KR      -0.017900
     43 H18         -0.9530     9.8170    -5.0310 hc         1 0KR       0.018033
     44 H19          0.4320    10.0460    -6.1080 hc         1 0KR       0.018033
     45 H20          0.6220    10.2700    -4.3640 hc         1 0KR       0.018033
     46 H21          2.0610    -0.0020    -0.8090 hn         1 0KR       0.340800
@<TRIPOS>BOND
     1     1     2 1
     2     1     5 1
     3     1     6 1
     4     1     8 1
     5     2     3 1
     6     2    46 1
     7     3     4 1
     8     3    14 2
     9     4     5 1
    10     4    15 1
    11     5     7 2
    12     6    16 1
    13     6    17 1
    14     6    27 1
    15     8     9 ar
    16     8    13 ar
    17     9    10 ar
    18     9    28 1
    19    10    11 ar
    20    10    18 1
    21    11    12 ar
    22    11    29 1
    23    12    13 ar
    24    12    30 1
    25    13    31 1
    26    14    32 1
    27    15    33 1
    28    15    34 1
    29    15    35 1
    30    16    17 1
    31    16    36 1
    32    16    37 1
    33    17    38 1
    34    17    39 1
    35    18    19 ar
    36    18    22 ar
    37    19    20 ar
    38    19    40 1
    39    20    21 ar
    40    20    23 1
    41    21    24 ar
    42    21    41 1
    43    22    24 ar
    44    22    42 1
    45    23    25 3
    46    25    26 1
    47    26    43 1
    48    26    44 1
    49    26    45 1
@<TRIPOS>SUBSTRUCTURE
     1 0KR         1 TEMP              0 ****  ****    0 ROOT
