@<TRIPOS>MOLECULE
0KS
   40    41     1     0     0
SMALL
bcc


@<TRIPOS>ATOM
      1 C1           0.0000     0.0000     0.0000 ca         1 0KS      -0.149300
      2 C2           1.3830     0.0000     0.0000 ca         1 0KS      -0.049500
      3 C3          -0.6950     0.0070     1.1950 ca         1 0KS      -0.049500
      4 C4           2.0740     0.0000     1.1960 ca         1 0KS      -0.114000
      5 C5          -0.0090     0.0090     2.3940 ca         1 0KS      -0.114000
      6 C6           1.3800     0.0010     2.3980 ca         1 0KS       0.115600
      7 N1           2.0760     0.0020     3.6090 nh         1 0KS      -0.384900
      8 S2           3.0170    -1.2960     4.0230 sy         1 0KS       1.051200
      9 O4           3.0320    -1.3440     5.4430 o          1 0KS      -0.577300
     10 O5           2.5860    -2.3800     3.2130 o          1 0KS      -0.577300
     11 C8           4.6660    -0.9260     3.5220 ca         1 0KS      -0.165500
     12 C9           5.4890    -0.1840     4.3480 ca         1 0KS       0.002000
     13 C10          5.1370    -1.3810     2.3050 ca         1 0KS       0.002000
     14 C11          6.4310    -1.0960     1.9140 ca         1 0KS      -0.131000
     15 C12          6.7820     0.1070     3.9540 ca         1 0KS      -0.131000
     16 C13          7.2550    -0.3540     2.7400 ca         1 0KS      -0.044000
     17 C7           1.9740     1.1510     4.5120 c3         1 0KS       0.273100
     18 C18         -0.7520     0.0000    -1.3060 c3         1 0KS       0.131100
     19 C19         -1.6150    -1.2600    -1.3970 c3         1 0KS       0.557900
     20 C20         -1.6480     1.2380    -1.3790 c3         1 0KS       0.557900
     21 F5          -2.5250    -1.2810    -0.3360 f          1 0KS      -0.193967
     22 F4          -2.3120    -1.2610    -2.6100 f          1 0KS      -0.193967
     23 F6          -0.7950    -2.3920    -1.3310 f          1 0KS      -0.193967
     24 F7          -2.2490     1.3050    -2.6420 f          1 0KS      -0.193967
     25 F9          -2.6390     1.1540    -0.3950 f          1 0KS      -0.193967
     26 F8          -0.8770     2.3850    -1.1690 f          1 0KS      -0.193967
     27 O1           0.1780     0.0200    -2.3900 oh         1 0KS      -0.533800
     28 H1           1.9240    -0.0030    -0.9380 ha         1 0KS       0.129500
     29 H2          -1.7780     0.0100     1.1920 ha         1 0KS       0.129500
     30 H3           3.1580    -0.0030     1.1960 ha         1 0KS       0.116500
     31 H4          -0.5540     0.0120     3.3310 ha         1 0KS       0.116500
     32 H5           5.1190     0.1770     5.3000 ha         1 0KS       0.123500
     33 H6           4.4920    -1.9630     1.6580 ha         1 0KS       0.123500
     34 H7           6.8010    -1.4560     0.9610 ha         1 0KS       0.110000
     35 H8           7.4280     0.6880     4.6020 ha         1 0KS       0.110000
     36 H9           8.2690    -0.1290     2.4320 ha         1 0KS       0.103000
     37 H10          1.1760     0.9800     5.2260 h1         1 0KS       0.005367
     38 H11          2.9100     1.2790     5.0420 h1         1 0KS       0.005367
     39 H12          1.7590     2.0440     3.9380 h1         1 0KS       0.005367
     40 H13         -0.2910    -0.0030    -3.2080 ho         1 0KS       0.414000
@<TRIPOS>BOND
     1     1     2 ar  
     2     1     3 ar  
     3     1    18 1   
     4     2     4 ar  
     5     2    28 1   
     6     3     5 ar  
     7     3    29 1   
     8     4     6 ar  
     9     4    30 1   
    10     5     6 ar  
    11     5    31 1   
    12     6     7 1   
    13     7     8 1   
    14     7    17 1   
    15     8     9 2   
    16     8    10 2   
    17     8    11 1   
    18    11    12 ar  
    19    11    13 ar  
    20    12    15 ar  
    21    12    32 1   
    22    13    14 ar  
    23    13    33 1   
    24    14    16 ar  
    25    14    34 1   
    26    15    16 ar  
    27    15    35 1   
    28    16    36 1   
    29    17    37 1   
    30    17    38 1   
    31    17    39 1   
    32    18    19 1   
    33    18    20 1   
    34    18    27 1   
    35    19    21 1   
    36    19    22 1   
    37    19    23 1   
    38    20    24 1   
    39    20    25 1   
    40    20    26 1   
    41    27    40 1   
@<TRIPOS>SUBSTRUCTURE
     1 0KS         1 TEMP              0 ****  ****    0 ROOT
