@<TRIPOS>MOLECULE
0KS
   40    41     1     0     0
SMALL
bcc


@<TRIPOS>ATOM
      1 C1          -0.1250    -0.0530     0.0300 ca         1 0KS      -0.150300
      2 C2           1.2450    -0.3440     0.0470 ca         1 0KS      -0.062000
      3 C3          -0.7920     0.1580     1.2410 ca         1 0KS      -0.062000
      4 C4           1.9410    -0.4280     1.2450 ca         1 0KS      -0.172000
      5 C5          -0.1080     0.0710     2.4480 ca         1 0KS      -0.172000
      6 C6           1.2720    -0.2300     2.4780 ca         1 0KS       0.189600
      7 N1           1.9660    -0.3170     3.7010 nh         1 0KS      -0.669900
      8 S2           3.1370    -1.4410     4.0320 sy         1 0KS       1.509200
      9 O4           3.6720    -1.1630     5.3080 o          1 0KS      -0.644800
     10 O5           4.0610    -1.5120     2.9730 o          1 0KS      -0.644800
     11 C8           2.2730    -2.8800     4.1000 ca         1 0KS      -0.394500
     12 C9           2.1200    -3.6810     2.9610 ca         1 0KS      -0.011000
     13 C10          1.7270    -3.3270     5.3110 ca         1 0KS      -0.011000
     14 C11          1.0390    -4.5350     5.3810 ca         1 0KS      -0.155500
     15 C12          1.4320    -4.8900     3.0240 ca         1 0KS      -0.155500
     16 C13          0.8880    -5.3170     4.2350 ca         1 0KS      -0.060000
     17 C7           1.5220     0.5680     4.7460 c3         1 0KS       0.190100
     18 C18         -0.8620     0.0340    -1.2690 c3         1 0KS       0.170100
     19 C19         -0.8090    -1.3470    -2.0630 c3         1 0KS       0.600400
     20 C20         -0.2750     1.1860    -2.2000 c3         1 0KS       0.600400
     21 F5          -1.6920    -1.3610    -3.1140 f          1 0KS      -0.220967
     22 F4          -1.1580    -2.4290    -1.3040 f          1 0KS      -0.220967
     23 F6           0.4060    -1.6570    -2.6070 f          1 0KS      -0.220967
     24 F7          -1.0990     1.4400    -3.2690 f          1 0KS      -0.220967
     25 F9           0.9520     0.9230    -2.7430 f          1 0KS      -0.220967
     26 F8          -0.1470     2.3900    -1.5670 f          1 0KS      -0.220967
     27 O1          -2.2160     0.3320    -1.0230 oh         1 0KS      -0.552800
     28 H1           1.7840    -0.5010    -0.9030 ha         1 0KS       0.158000
     29 H2          -1.8700     0.3910     1.2410 ha         1 0KS       0.158000
     30 H3           3.0240    -0.6450     1.2160 ha         1 0KS       0.163500
     31 H4          -0.6620     0.2420     3.3840 ha         1 0KS       0.163500
     32 H5           2.5640    -3.3490     2.0050 ha         1 0KS       0.153500
     33 H6           1.8630    -2.7170     6.2210 ha         1 0KS       0.153500
     34 H7           0.6180    -4.8730     6.3400 ha         1 0KS       0.144500
     35 H8           1.3210    -5.5070     2.1190 ha         1 0KS       0.144500
     36 H9           0.3430    -6.2720     4.2880 ha         1 0KS       0.140000
     37 H10          1.2440     1.5690     4.3220 h1         1 0KS       0.056033
     38 H11          2.3510     0.7140     5.4930 h1         1 0KS       0.056033
     39 H12          0.6260     0.1450     5.2770 h1         1 0KS       0.056033
     40 H13         -2.6690     0.3870    -1.8810 ho         1 0KS       0.440000
@<TRIPOS>BOND
     1     1     2 ar  
     2     1     3 ar  
     3     1    18 1   
     4     2     4 ar  
     5     2    28 1   
     6     3     5 ar  
     7     3    29 1   
     8     4     6 ar  
     9     4    30 1   
    10     5     6 ar  
    11     5    31 1   
    12     6     7 1   
    13     7     8 1   
    14     7    17 1   
    15     8     9 2   
    16     8    10 2   
    17     8    11 1   
    18    11    12 ar  
    19    11    13 ar  
    20    12    15 ar  
    21    12    32 1   
    22    13    14 ar  
    23    13    33 1   
    24    14    16 ar  
    25    14    34 1   
    26    15    16 ar  
    27    15    35 1   
    28    16    36 1   
    29    17    37 1   
    30    17    38 1   
    31    17    39 1   
    32    18    19 1   
    33    18    20 1   
    34    18    27 1   
    35    19    21 1   
    36    19    22 1   
    37    19    23 1   
    38    20    24 1   
    39    20    25 1   
    40    20    26 1   
    41    27    40 1   
@<TRIPOS>SUBSTRUCTURE
     1 0KS         1 TEMP              0 ****  ****    0 ROOT
