@<TRIPOS>MOLECULE
molecule
   55    57     1     0     0
SMALL
bcc


@<TRIPOS>ATOM
      1 C1           0.0000     0.0000     0.0000 ca         1 0KT      -0.155300
      2 C2           1.3820     0.0000     0.0000 ca         1 0KT      -0.061000
      3 C3          -0.6940     0.0000     1.1970 ca         1 0KT      -0.061000
      4 C4           2.0760     0.0000     1.1940 ca         1 0KT      -0.170000
      5 C5          -0.0080     0.0000     2.3950 ca         1 0KT      -0.170000
      6 C6           1.3820    -0.0000     2.3980 ca         1 0KT       0.184600
      7 N1           2.0800    -0.0010     3.6080 nh         1 0KT      -0.670900
      8 S2           1.3760     0.6230     4.9700 sy         1 0KT       1.422200
      9 O4           2.4370     0.9630     5.8510 o          1 0KT      -0.623800
     10 O5           0.4030     1.5590     4.5270 o          1 0KT      -0.623800
     11 C8           0.4870    -0.6870     5.7450 ca         1 0KT      -0.316500
     12 C9          -0.8790    -0.7980     5.5640 ca         1 0KT      -0.029500
     13 C10          1.1570    -1.6080     6.5280 ca         1 0KT      -0.029500
     14 C11          0.4610    -2.6370     7.1350 ca         1 0KT      -0.147500
     15 C12         -1.5760    -1.8260     6.1710 ca         1 0KT      -0.147500
     16 C13         -0.9060    -2.7440     6.9590 ca         1 0KT      -0.072000
     17 C7           3.4350    -0.5530     3.6710 c3         1 0KT       0.220100
     18 C18         -0.7530     0.0050    -1.3040 c3         1 0KT       0.252400
     19 C19         -0.1340    -0.9930    -2.2470 cc         1 0KT      -0.143600
     20 C20         -0.6870     1.4030    -1.9260 c3         1 0KT       0.595900
     21 F7          -1.3860     1.4080    -3.1380 f          1 0KT      -0.215633
     22 F9          -1.2630     2.3300    -1.0510 f          1 0KT      -0.215633
     23 F8           0.6490     1.7470    -2.1570 f          1 0KT      -0.215633
     24 O1          -2.1190    -0.3460    -1.0690 oh         1 0KT      -0.582800
     25 C14          0.4610    -0.7070    -3.4230 cc         1 0KT      -0.186000
     26 N2          -0.0700    -2.3410    -2.0540 na         1 0KT      -0.025100
     27 C16          0.5640    -2.9070    -3.1210 cd         1 0KT      -0.147300
     28 C17          0.9020    -1.9240    -3.9800 cc         1 0KT      -0.205000
     29 C15         -0.5970    -3.0630    -0.8930 c3         1 0KT       0.042300
     30 C21         -1.9620    -3.6610    -1.2410 c3         1 0KT       0.118400
     31 O2          -2.4760    -4.3650    -0.1080 os         1 0KT      -0.433600
     32 C23         -3.7550    -4.9640    -0.3270 c3         1 0KT       0.133700
     33 H1           1.9230     0.0000    -0.9390 ha         1 0KT       0.152500
     34 H2          -1.7770     0.0000     1.1950 ha         1 0KT       0.152500
     35 H3           3.1590    -0.0000     1.1930 ha         1 0KT       0.143500
     36 H4          -0.5520     0.0000     3.3320 ha         1 0KT       0.143500
     37 H5          -1.4040    -0.0790     4.9460 ha         1 0KT       0.148500
     38 H6           2.2280    -1.5240     6.6660 ha         1 0KT       0.148500
     39 H7           0.9860    -3.3570     7.7510 ha         1 0KT       0.138500
     40 H8          -2.6460    -1.9110     6.0320 ha         1 0KT       0.138500
     41 H9          -1.4520    -3.5490     7.4350 ha         1 0KT       0.135000
     42 H10          4.1200     0.1120     3.1600 h1         1 0KT       0.051367
     43 H11          3.7350    -0.6550     4.7070 h1         1 0KT       0.051367
     44 H12          3.4510    -1.5260     3.1930 h1         1 0KT       0.051367
     45 H13         -2.6800     0.3430    -1.3850 ho         1 0KT       0.419000
     46 H14          0.5750     0.2770    -3.8610 ha         1 0KT       0.158000
     47 H15          0.7620    -3.9630    -3.2540 h4         1 0KT       0.168000
     48 H16          1.4200    -2.0480    -4.9240 ha         1 0KT       0.152000
     49 H17          0.0870    -3.8580    -0.6220 h1         1 0KT       0.077200
     50 H18         -0.7040    -2.3790    -0.0600 h1         1 0KT       0.077200
     51 H19         -1.8550    -4.3450    -2.0740 h1         1 0KT       0.038700
     52 H20         -2.6460    -2.8660    -1.5120 h1         1 0KT       0.038700
     53 H21         -4.0460    -5.5260     0.5520 h1         1 0KT       0.031367
     54 H22         -4.4880    -4.1900    -0.5200 h1         1 0KT       0.031367
     55 H23         -3.7000    -5.6300    -1.1800 h1         1 0KT       0.031367
@<TRIPOS>BOND
     1    28    27 2   
     2    28    25 1   
     3    27    26 1   
     4    25    19 2   
     5    26    19 1   
     6    26    29 1   
     7    19    18 1   
     8    22    20 1   
     9    21    20 1   
    10    29    30 1   
    11     2     4 ar  
    12     2     1 ar  
    13    20    18 1   
    14    20    23 1   
    15    30    31 1   
    16    18     1 1   
    17    18    24 1   
    18     4     6 ar  
    19    31    32 1   
    20     1     3 ar  
    21    10     8 2   
    22     6     7 1   
    23     6     5 ar  
    24     7     8 1   
    25     7    17 1   
    26     3     5 ar  
    27     8     9 2   
    28     8    11 1   
    29    12    11 ar  
    30    12    15 ar  
    31    11    13 ar  
    32    15    16 ar  
    33    13    14 ar  
    34    16    14 ar  
    35     2    33 1   
    36     3    34 1   
    37     4    35 1   
    38     5    36 1   
    39    12    37 1   
    40    13    38 1   
    41    14    39 1   
    42    15    40 1   
    43    16    41 1   
    44    17    42 1   
    45    17    43 1   
    46    17    44 1   
    47    24    45 1   
    48    25    46 1   
    49    27    47 1   
    50    28    48 1   
    51    29    49 1   
    52    29    50 1   
    53    30    51 1   
    54    30    52 1   
    55    32    53 1   
    56    32    54 1   
    57    32    55 1   
@<TRIPOS>SUBSTRUCTURE
     1 0KT         1 TEMP              0 ****  ****    0 ROOT
