@<TRIPOS>MOLECULE
0KT
   55    57     1     0     0
SMALL
bcc


@<TRIPOS>ATOM
      1 C1          -0.1150     0.0080     0.1910 ca         1 0KT      -0.125300
      2 C2           1.1830    -0.3920     0.5280 ca         1 0KT      -0.074000
      3 C3          -0.8690     0.7320     1.1190 ca         1 0KT      -0.074000
      4 C4           1.7280    -0.0760     1.7670 ca         1 0KT      -0.169000
      5 C5          -0.3400     1.0460     2.3660 ca         1 0KT      -0.169000
      6 C6           0.9680     0.6450     2.7170 ca         1 0KT       0.165600
      7 N1           1.5100     0.9740     3.9790 nh         1 0KT      -0.674900
      8 S2           2.4030    -0.0630     4.8990 sy         1 0KT       1.507200
      9 O4           2.8420     0.6230     6.0530 o          1 0KT      -0.647300
     10 O5           3.4060    -0.6790     4.1260 o          1 0KT      -0.647300
     11 C8           1.2830    -1.2350     5.3580 ca         1 0KT      -0.384500
     12 C9           1.1350    -2.4160     4.6200 ca         1 0KT      -0.011000
     13 C10          0.5130    -1.0680     6.5170 ca         1 0KT      -0.011000
     14 C11         -0.3870    -2.0490     6.9240 ca         1 0KT      -0.158000
     15 C12          0.2370    -3.4020     5.0210 ca         1 0KT      -0.158000
     16 C13         -0.5270    -3.2180     6.1740 ca         1 0KT      -0.064000
     17 C7           1.1460     2.2620     4.5070 c3         1 0KT       0.194100
     18 C18         -0.6810    -0.3510    -1.1590 c3         1 0KT       0.282400
     19 C19         -0.4720    -1.8020    -1.4650 cc         1 0KT      -0.176600
     20 C20         -0.0000     0.5550    -2.2880 c3         1 0KT       0.601900
     21 F7          -0.4860     0.2920    -3.5440 f          1 0KT      -0.234300
     22 F9           1.3600     0.4580    -2.4030 f          1 0KT      -0.234300
     23 F8          -0.2380     1.8930    -2.1120 f          1 0KT      -0.234300
     24 O1          -2.0510     0.0180    -1.1780 oh         1 0KT      -0.585800
     25 C14          0.5740    -2.3920    -2.2000 cd         1 0KT      -0.161000
     26 N2          -1.2880    -2.8330    -0.9700 na         1 0KT      -0.038100
     27 C16         -0.7750    -4.0500    -1.4150 cc         1 0KT      -0.152300
     28 C17          0.3810    -3.8080    -2.1690 cd         1 0KT      -0.193000
     29 C15         -2.5060    -2.7050    -0.2230 c3         1 0KT       0.022300
     30 C21         -3.7850    -3.0080    -1.0190 c3         1 0KT       0.110400
     31 O2          -4.0140    -1.9020    -1.8850 os         1 0KT      -0.431600
     32 C23         -5.1170    -2.1020    -2.7530 c3         1 0KT       0.116700
     33 H1           1.7840    -0.9550    -0.2060 ha         1 0KT       0.156000
     34 H2          -1.8890     1.0580     0.8600 ha         1 0KT       0.156000
     35 H3           2.7610    -0.3950     1.9920 ha         1 0KT       0.157500
     36 H4          -0.9550     1.6210     3.0760 ha         1 0KT       0.157500
     37 H5           1.7510    -2.5660     3.7150 ha         1 0KT       0.154500
     38 H6           0.6400    -0.1530     7.1220 ha         1 0KT       0.154500
     39 H7          -0.9820    -1.9050     7.8380 ha         1 0KT       0.141500
     40 H8           0.1360    -4.3250     4.4320 ha         1 0KT       0.141500
     41 H9          -1.2370    -3.9960     6.4940 ha         1 0KT       0.136000
     42 H10          1.9150     2.5930     5.2580 h1         1 0KT       0.054033
     43 H11          0.1420     2.2210     5.0110 h1         1 0KT       0.054033
     44 H12          1.0980     3.0230     3.6830 h1         1 0KT       0.054033
     45 H13         -2.4520    -0.3790    -1.9680 ho         1 0KT       0.446000
     46 H14          1.3790    -1.8620    -2.7040 ha         1 0KT       0.166000
     47 H15         -1.2600    -4.9920    -1.1590 h4         1 0KT       0.164000
     48 H16          1.0140    -4.5540    -2.6400 ha         1 0KT       0.157000
     49 H17         -2.4670    -3.4340     0.6370 h1         1 0KT       0.083200
     50 H18         -2.5740    -1.6560     0.1890 h1         1 0KT       0.083200
     51 H19         -3.6880    -3.9530    -1.6170 h1         1 0KT       0.040200
     52 H20         -4.6440    -3.1050    -0.3030 h1         1 0KT       0.040200
     53 H21         -4.9390    -2.9810    -3.4200 h1         1 0KT       0.038367
     54 H22         -6.0560    -2.2520    -2.1650 h1         1 0KT       0.038367
     55 H23         -5.1740    -1.1580    -3.3510 h1         1 0KT       0.038367
@<TRIPOS>BOND
     1     1     2 ar  
     2     1     3 ar  
     3     1    18 1   
     4     2     4 ar  
     5     2    33 1   
     6     3     5 ar  
     7     3    34 1   
     8     4     6 ar  
     9     4    35 1   
    10     5     6 ar  
    11     5    36 1   
    12     6     7 1   
    13     7     8 1   
    14     7    17 1   
    15     8     9 2   
    16     8    10 2   
    17     8    11 1   
    18    11    12 ar  
    19    11    13 ar  
    20    12    15 ar  
    21    12    37 1   
    22    13    14 ar  
    23    13    38 1   
    24    14    16 ar  
    25    14    39 1   
    26    15    16 ar  
    27    15    40 1   
    28    16    41 1   
    29    17    42 1   
    30    17    43 1   
    31    17    44 1   
    32    18    19 1   
    33    18    20 1   
    34    18    24 1   
    35    19    25 2   
    36    19    26 1   
    37    20    21 1   
    38    20    22 1   
    39    20    23 1   
    40    24    45 1   
    41    25    28 1   
    42    25    46 1   
    43    26    27 1   
    44    26    29 1   
    45    27    28 2   
    46    27    47 1   
    47    28    48 1   
    48    29    30 1   
    49    29    49 1   
    50    29    50 1   
    51    30    31 1   
    52    30    51 1   
    53    30    52 1   
    54    31    32 1   
    55    32    53 1   
    56    32    54 1   
    57    32    55 1   
@<TRIPOS>SUBSTRUCTURE
     1 0KT         1 TEMP              0 ****  ****    0 ROOT
