@<TRIPOS>MOLECULE
0KT
   55    57     1     0     0
SMALL
bcc


@<TRIPOS>ATOM
      1 C1           0.0000     0.0000     0.0000 ca         1 0KT      -0.184300
      2 C2           1.3820     0.0000     0.0000 ca         1 0KT      -0.034500
      3 C3          -0.6940     0.0000     1.1970 ca         1 0KT      -0.034500
      4 C4           2.0760     0.0000     1.1940 ca         1 0KT      -0.159500
      5 C5          -0.0080     0.0000     2.3950 ca         1 0KT      -0.159500
      6 C6           1.3820    -0.0000     2.3980 ca         1 0KT       0.114600
      7 N1           2.0800    -0.0010     3.6080 nh         1 0KT      -0.345900
      8 S2           1.3760     0.6230     4.9700 sy         1 0KT       1.050200
      9 O4           2.4370     0.9630     5.8510 o          1 0KT      -0.579800
     10 O5           0.4030     1.5590     4.5270 o          1 0KT      -0.579800
     11 C8           0.4870    -0.6870     5.7450 ca         1 0KT      -0.165500
     12 C9          -0.8790    -0.7980     5.5640 ca         1 0KT       0.001500
     13 C10          1.1570    -1.6080     6.5280 ca         1 0KT       0.001500
     14 C11          0.4610    -2.6370     7.1350 ca         1 0KT      -0.128000
     15 C12         -1.5760    -1.8260     6.1710 ca         1 0KT      -0.128000
     16 C13         -0.9060    -2.7440     6.9590 ca         1 0KT      -0.043000
     17 C7           3.4350    -0.5530     3.6710 c3         1 0KT       0.250100
     18 C18         -0.7530     0.0050    -1.3040 c3         1 0KT       0.296400
     19 C19         -0.1340    -0.9930    -2.2470 cc         1 0KT      -0.342600
     20 C20         -0.6870     1.4030    -1.9260 c3         1 0KT       0.549900
     21 F7          -1.3860     1.4080    -3.1380 f          1 0KT      -0.200633
     22 F9          -1.2630     2.3300    -1.0510 f          1 0KT      -0.200633
     23 F8           0.6490     1.7470    -2.1570 f          1 0KT      -0.200633
     24 O1          -2.1190    -0.3460    -1.0690 oh         1 0KT      -0.570800
     25 C14          0.4610    -0.7070    -3.4230 cd         1 0KT      -0.169000
     26 N2          -0.0700    -2.3410    -2.0540 na         1 0KT       0.490900
     27 C16          0.5640    -2.9070    -3.1210 cc         1 0KT      -0.321300
     28 C17          0.9020    -1.9240    -3.9800 cd         1 0KT      -0.165000
     29 C15         -0.5970    -3.0630    -0.8930 c3         1 0KT      -0.081700
     30 C21         -1.9620    -3.6610    -1.2410 c3         1 0KT       0.196400
     31 O2          -2.4760    -4.3650    -0.1080 os         1 0KT      -0.417600
     32 C23         -3.7550    -4.9640    -0.3270 c3         1 0KT       0.257700
     33 H1           1.9230     0.0000    -0.9390 ha         1 0KT       0.122500
     34 H2          -1.7770     0.0000     1.1950 ha         1 0KT       0.122500
     35 H3           3.1590    -0.0000     1.1930 ha         1 0KT       0.127500
     36 H4          -0.5520     0.0000     3.3320 ha         1 0KT       0.127500
     37 H5          -1.4040    -0.0790     4.9460 ha         1 0KT       0.123000
     38 H6           2.2280    -1.5240     6.6660 ha         1 0KT       0.123000
     39 H7           0.9860    -3.3570     7.7510 ha         1 0KT       0.110500
     40 H8          -2.6460    -1.9110     6.0320 ha         1 0KT       0.110500
     41 H9          -1.4520    -3.5490     7.4350 ha         1 0KT       0.103000
     42 H10          4.1200     0.1120     3.1600 h1         1 0KT       0.012367
     43 H11          3.7350    -0.6550     4.7070 h1         1 0KT       0.012367
     44 H12          3.4510    -1.5260     3.1930 h1         1 0KT       0.012367
     45 H13         -2.6800     0.3430    -1.3850 ho         1 0KT       0.406000
     46 H14          0.5750     0.2770    -3.8610 ha         1 0KT       0.138000
     47 H15          0.7620    -3.9630    -3.2540 h4         1 0KT       0.146000
     48 H16          1.4200    -2.0480    -4.9240 ha         1 0KT       0.127000
     49 H17          0.0870    -3.8580    -0.6220 h1         1 0KT       0.051700
     50 H18         -0.7040    -2.3790    -0.0600 h1         1 0KT       0.051700
     51 H19         -1.8550    -4.3450    -2.0740 h1         1 0KT       0.004700
     52 H20         -2.6460    -2.8660    -1.5120 h1         1 0KT       0.004700
     53 H21         -4.0460    -5.5260     0.5520 h1         1 0KT      -0.011633
     54 H22         -4.4880    -4.1900    -0.5200 h1         1 0KT      -0.011633
     55 H23         -3.7000    -5.6300    -1.1800 h1         1 0KT      -0.011633
@<TRIPOS>BOND
     1     1     2 ar  
     2     1     3 ar  
     3     1    18 1   
     4     2     4 ar  
     5     2    33 1   
     6     3     5 ar  
     7     3    34 1   
     8     4     6 ar  
     9     4    35 1   
    10     5     6 ar  
    11     5    36 1   
    12     6     7 1   
    13     7     8 1   
    14     7    17 1   
    15     8     9 2   
    16     8    10 2   
    17     8    11 1   
    18    11    12 ar  
    19    11    13 ar  
    20    12    15 ar  
    21    12    37 1   
    22    13    14 ar  
    23    13    38 1   
    24    14    16 ar  
    25    14    39 1   
    26    15    16 ar  
    27    15    40 1   
    28    16    41 1   
    29    17    42 1   
    30    17    43 1   
    31    17    44 1   
    32    18    19 1   
    33    18    20 1   
    34    18    24 1   
    35    19    25 2   
    36    19    26 1   
    37    20    21 1   
    38    20    22 1   
    39    20    23 1   
    40    24    45 1   
    41    25    28 1   
    42    25    46 1   
    43    26    27 1   
    44    26    29 1   
    45    27    28 2   
    46    27    47 1   
    47    28    48 1   
    48    29    30 1   
    49    29    49 1   
    50    29    50 1   
    51    30    31 1   
    52    30    51 1   
    53    30    52 1   
    54    31    32 1   
    55    32    53 1   
    56    32    54 1   
    57    32    55 1   
@<TRIPOS>SUBSTRUCTURE
     1 0KT         1 TEMP              0 ****  ****    0 ROOT
