@<TRIPOS>MOLECULE
0KU
   51    53     1     0     0
SMALL
bcc


@<TRIPOS>ATOM
      1 C01          0.0000     0.0000     0.0000 ca         1 0KU      -0.044600
      2 C02          1.3840     0.0000     0.0000 ca         1 0KU      -0.080500
      3 C03          2.0760     0.0000     1.1950 ca         1 0KU      -0.104000
      4 C04          1.3820     0.0020     2.3990 ca         1 0KU      -0.100400
      5 C05         -0.0070     0.0030     2.3950 ca         1 0KU      -0.104000
      6 C06         -0.6940     0.0070     1.1970 ca         1 0KU      -0.080500
      7 Cl1         -0.8660    -0.0020    -1.5040 cl         1 0KU      -0.027400
      8 N08          2.0800     0.0020     3.6090 ns         1 0KU       0.011900
      9 C09          1.5710    -0.6380     4.6800 c          1 0KU       0.489100
     10 C10          2.2550    -0.5390     6.0040 c          1 0KU       0.500100
     11 N11          1.7470    -1.1790     7.0760 ns         1 0KU      -0.132900
     12 O12          3.2700     0.1170     6.1150 o          1 0KU      -0.655100
     13 O13          0.5560    -1.2940     4.5690 o          1 0KU      -0.633100
     14 C14          2.4180    -1.0830     8.3740 c3         1 0KU       0.008400
     15 C15          1.9550     0.1840     9.0940 c3         1 0KU       0.108500
     16 C16          2.0750    -2.2890     9.2080 cc         1 0KU       0.402700
     17 C17          2.3040     1.4100     8.2470 c3         1 0KU      -0.037400
     18 C18          1.8570     2.6770     8.9820 c3         1 0KU      -0.024400
     19 C19          2.5340     2.7280    10.3540 c3         1 0KU      -0.026400
     20 C20          2.1780     1.4640    11.1410 c3         1 0KU       0.151800
     21 N21          2.6270     0.2800    10.3960 n7         1 0KU      -0.581200
     22 N22          0.8900    -2.7840     9.3390 nd         1 0KU      -0.555000
     23 C23          0.7640    -3.8460    10.1090 cd         1 0KU       0.344600
     24 C24          1.9050    -4.2720    10.6560 cc         1 0KU      -0.117700
     25 S25          3.1990    -3.2070    10.1120 ss         1 0KU      -0.257300
     26 C26         -0.5610    -4.5220    10.3550 c3         1 0KU      -0.020400
     27 C27          2.0600    -5.4580    11.5750 c3         1 0KU       0.328700
     28 O28          2.3230    -6.6290    10.7990 oh         1 0KU      -0.585800
     29 H1           1.9250    -0.0040    -0.9390 ha         1 0KU       0.115500
     30 H2           3.1600    -0.0000     1.1940 ha         1 0KU       0.125500
     31 H3          -0.5510     0.0060     3.3320 ha         1 0KU       0.125500
     32 H4          -1.7770     0.0080     1.1950 ha         1 0KU       0.115500
     33 H5           2.9640     0.4650     3.6770 hn         1 0KU       0.188500
     34 H6           0.9260    -1.7430     6.9780 hn         1 0KU       0.209500
     35 H7           3.4900    -1.0420     8.2230 h1         1 0KU       0.076700
     36 H8           0.8830     0.1470     9.2460 h1         1 0KU       0.019700
     37 H9           1.7930     1.3470     7.2940 hc         1 0KU       0.037200
     38 H10          3.3750     1.4450     8.0880 hc         1 0KU       0.037200
     39 H12          2.1440     3.5480     8.4050 hc         1 0KU       0.012700
     40 H11          0.7810     2.6590     9.1100 hc         1 0KU       0.012700
     41 H13          3.6080     2.7810    10.2240 hc         1 0KU       0.019700
     42 H14          2.1860     3.6000    10.8950 hc         1 0KU       0.019700
     43 H16          2.6700     1.4910    12.1060 h1         1 0KU       0.005200
     44 H15          1.1040     1.4170    11.2780 h1         1 0KU       0.005200
     45 H17          2.4360    -0.5430    10.9320 hn         1 0KU       0.255800
     46 H21         -1.3440    -3.9820     9.8370 hc         1 0KU       0.017700
     47 H19         -0.7700    -4.5300    11.4180 hc         1 0KU       0.017700
     48 H20         -0.5200    -5.5410     9.9870 hc         1 0KU       0.017700
     49 H23          1.1470    -5.5970    12.1410 h1         1 0KU      -0.003300
     50 H22          2.8840    -5.2830    12.2550 h1         1 0KU      -0.003300
     51 H24          2.6780    -7.3020    11.3560 ho         1 0KU       0.394000
@<TRIPOS>BOND
     1     1     2 ar  
     2     1     6 ar  
     3     1     7 1   
     4     2     3 ar  
     5     2    29 1   
     6     3     4 ar  
     7     3    30 1   
     8     4     5 ar  
     9     4     8 1   
    10     5     6 ar  
    11     5    31 1   
    12     6    32 1   
    13     8     9 1   
    14     8    33 1   
    15     9    10 1   
    16     9    13 2   
    17    10    11 1   
    18    10    12 2   
    19    11    14 1   
    20    11    34 1   
    21    14    15 1   
    22    14    16 1   
    23    14    35 1   
    24    15    17 1   
    25    15    21 1   
    26    15    36 1   
    27    16    22 2   
    28    16    25 1   
    29    17    18 1   
    30    17    37 1   
    31    17    38 1   
    32    18    19 1   
    33    18    39 1   
    34    18    40 1   
    35    19    20 1   
    36    19    41 1   
    37    19    42 1   
    38    20    21 1   
    39    20    43 1   
    40    20    44 1   
    41    21    45 1   
    42    22    23 1   
    43    23    24 2   
    44    23    26 1   
    45    24    25 1   
    46    24    27 1   
    47    26    46 1   
    48    26    47 1   
    49    26    48 1   
    50    27    28 1   
    51    27    49 1   
    52    27    50 1   
    53    28    51 1   
@<TRIPOS>SUBSTRUCTURE
     1 0KU         1 TEMP              0 ****  ****    0 ROOT
