@<TRIPOS>MOLECULE
molecule
   51    53     1     0     0
SMALL
bcc


@<TRIPOS>ATOM
      1 C01          0.0000     0.0000     0.0000 ca         1 0KU       0.013400
      2 C02          1.3840     0.0000     0.0000 ca         1 0KU      -0.104000
      3 C03          2.0760     0.0000     1.1950 ca         1 0KU      -0.134500
      4 C04          1.3820     0.0020     2.3990 ca         1 0KU       0.054600
      5 C05         -0.0070     0.0030     2.3950 ca         1 0KU      -0.134500
      6 C06         -0.6940     0.0070     1.1970 ca         1 0KU      -0.104000
      7 Cl1         -0.8660    -0.0020    -1.5040 cl         1 0KU      -0.109400
      8 N08          2.0800     0.0020     3.6090 ns         1 0KU      -0.450100
      9 C09          1.5710    -0.6380     4.6800 c          1 0KU       0.595100
     10 C10          2.2550    -0.5390     6.0040 c          1 0KU       0.594100
     11 N11          1.7470    -1.1790     7.0760 ns         1 0KU      -0.541900
     12 O12          3.2700     0.1170     6.1150 o          1 0KU      -0.606100
     13 O13          0.5560    -1.2940     4.5690 o          1 0KU      -0.581100
     14 C14          2.4180    -1.0830     8.3740 c3         1 0KU       0.107400
     15 C15          1.9550     0.1840     9.0940 c3         1 0KU       0.157500
     16 C16          2.0750    -2.2890     9.2080 cc         1 0KU       0.414700
     17 C17          2.3040     1.4100     8.2470 c3         1 0KU      -0.068400
     18 C18          1.8570     2.6770     8.9820 c3         1 0KU      -0.083400
     19 C19          2.5340     2.7280    10.3540 c3         1 0KU      -0.079400
     20 C20          2.1780     1.4640    11.1410 c3         1 0KU       0.162800
     21 N21          2.6270     0.2800    10.3960 n7         1 0KU      -0.818200
     22 N22          0.8900    -2.7840     9.3390 nc         1 0KU      -0.686000
     23 C23          0.7640    -3.8460    10.1090 cc         1 0KU       0.394600
     24 C24          1.9050    -4.2720    10.6560 cd         1 0KU      -0.154700
     25 S25          3.1990    -3.2070    10.1120 ss         1 0KU      -0.149300
     26 C26         -0.5610    -4.5220    10.3550 c3         1 0KU      -0.120400
     27 C27          2.0600    -5.4580    11.5750 c3         1 0KU       0.226700
     28 O28          2.3230    -6.6290    10.7990 oh         1 0KU      -0.601800
     29 H1           1.9250    -0.0040    -0.9390 ha         1 0KU       0.148000
     30 H2           3.1600    -0.0000     1.1940 ha         1 0KU       0.151500
     31 H3          -0.5510     0.0060     3.3320 ha         1 0KU       0.151500
     32 H4          -1.7770     0.0080     1.1950 ha         1 0KU       0.148000
     33 H5           2.9640     0.4650     3.6770 hn         1 0KU       0.348500
     34 H6           0.9260    -1.7430     6.9780 hn         1 0KU       0.355500
     35 H7           3.4900    -1.0420     8.2230 h1         1 0KU       0.101700
     36 H8           0.8830     0.1470     9.2460 h1         1 0KU       0.039700
     37 H9           1.7930     1.3470     7.2940 hc         1 0KU       0.059700
     38 H10          3.3750     1.4450     8.0880 hc         1 0KU       0.059700
     39 H12          2.1440     3.5480     8.4050 hc         1 0KU       0.041700
     40 H11          0.7810     2.6590     9.1100 hc         1 0KU       0.041700
     41 H13          3.6080     2.7810    10.2240 hc         1 0KU       0.049200
     42 H14          2.1860     3.6000    10.8950 hc         1 0KU       0.049200
     43 H16          2.6700     1.4910    12.1060 h1         1 0KU       0.032700
     44 H15          1.1040     1.4170    11.2780 h1         1 0KU       0.032700
     45 H17          2.4360    -0.5430    10.9320 hn         1 0KU       0.351800
     46 H21         -1.3440    -3.9820     9.8370 hc         1 0KU       0.055033
     47 H19         -0.7700    -4.5300    11.4180 hc         1 0KU       0.055033
     48 H20         -0.5200    -5.5410     9.9870 hc         1 0KU       0.055033
     49 H23          1.1470    -5.5970    12.1410 h1         1 0KU       0.035200
     50 H22          2.8840    -5.2830    12.2550 h1         1 0KU       0.035200
     51 H24          2.6780    -7.3020    11.3560 ho         1 0KU       0.406000
@<TRIPOS>BOND
     1    19    20 1
     2    19    18 1
     3    20    21 1
     4    28    27 1
     5    18    17 1
     6    26    23 1
     7    27    24 1
     8    23    24 2
     9    23    22 1
    10    21    15 1
    11    24    25 1
    12    15    17 1
    13    15    14 1
    14    22    16 2
    15    25    16 1
    16    16    14 1
    17    14    11 1
    18    11    10 1
    19    10    12 2
    20    10     9 1
    21    13     9 2
    22     9     8 1
    23     8     4 1
    24     4     3 ar
    25     4     5 ar
    26     3     2 ar
    27     5     6 ar
    28     2     1 ar
    29     6     1 ar
    30     1     7 1
    31     2    29 1
    32     3    30 1
    33     5    31 1
    34     6    32 1
    35     8    33 1
    36    11    34 1
    37    14    35 1
    38    15    36 1
    39    17    37 1
    40    17    38 1
    41    18    39 1
    42    18    40 1
    43    19    41 1
    44    19    42 1
    45    20    43 1
    46    20    44 1
    47    21    45 1
    48    26    46 1
    49    26    47 1
    50    26    48 1
    51    27    49 1
    52    27    50 1
    53    28    51 1
@<TRIPOS>SUBSTRUCTURE
     1 0KU         1 TEMP              0 ****  ****    0 ROOT
