@<TRIPOS>MOLECULE
0KU
   52    54     1     0     0
SMALL
bcc


@<TRIPOS>ATOM
      1 C01         -0.1500     1.6900     1.3350 ca         1 0KU       0.019400
      2 C02          1.2020     1.4070     1.1310 ca         1 0KU      -0.100500
      3 C03          1.9820     0.9040     2.1700 ca         1 0KU      -0.134500
      4 C04          1.4060     0.6760     3.4340 ca         1 0KU       0.015600
      5 C05          0.0350     0.9640     3.6330 ca         1 0KU      -0.134500
      6 C06         -0.7310     1.4650     2.5890 ca         1 0KU      -0.100500
      7 Cl1         -1.0900     2.3020     0.0680 cl         1 0KU      -0.050400
      8 N08          2.1370     0.1660     4.5360 ns         1 0KU      -0.395100
      9 C09          3.4420    -0.2090     4.5230 c          1 0KU       0.639100
     10 C10          3.9590    -0.7480     5.8800 c          1 0KU       0.478100
     11 N11          5.4570    -0.8340     5.9730 ny         1 0KU      -0.656800
     12 O12          3.2930    -1.1210     6.8300 o          1 0KU      -0.405100
     13 O13          4.2500    -0.1910     3.5770 o          1 0KU      -0.569100
     14 C14          6.0040    -0.1420     7.1990 c3         1 0KU       0.132200
     15 C15          7.5400    -0.3570     7.3310 c3         1 0KU       0.127500
     16 C16          5.6710     1.3190     7.2100 cc         1 0KU       0.207700
     17 C17          8.3210     0.1090     6.0940 c3         1 0KU      -0.122400
     18 C18          9.8080     0.0000     6.3800 c3         1 0KU      -0.080400
     19 C19         10.1900    -1.3870     6.8580 c3         1 0KU      -0.121400
     20 C20          9.2910    -1.8550     8.0020 c3         1 0KU       0.140800
     21 N21          7.8630    -1.7210     7.7430 n7         1 0KU      -0.787200
     22 N22          4.6550     1.8330     6.4790 nd         1 0KU      -0.673000
     23 C23          4.5400     3.1800     6.7370 cd         1 0KU       0.365600
     24 C24          5.4760     3.6610     7.6790 cc         1 0KU      -0.218700
     25 S25          6.4640     2.4350     8.2000 ss         1 0KU       0.186700
     26 C26          3.5290     4.0450     6.0870 c3         1 0KU      -0.135400
     27 C27          5.5260     5.0760     8.1080 c3         1 0KU       0.203700
     28 O28          6.6090     5.2320     9.0130 oh         1 0KU      -0.611800
     29 H1           1.6640     1.5800     0.1450 ha         1 0KU       0.165500
     30 H2           3.0460     0.6900     1.9780 ha         1 0KU       0.158500
     31 H3          -0.4450     0.7930     4.6100 ha         1 0KU       0.158500
     32 H4          -1.8000     1.6840     2.7540 ha         1 0KU       0.165500
     33 H5           1.6300     0.0890     5.3970 hn         1 0KU       0.351500
     34 H6           5.7290    -1.8220     6.0030 hn         1 0KU       0.474300
     35 H7           5.4820    -0.6310     8.0850 hx         1 0KU       0.137700
     36 H8           7.8470     0.3090     8.2000 h1         1 0KU       0.102700
     37 H9           8.0750    -0.5230     5.2000 hc         1 0KU       0.051200
     38 H10          8.0520     1.1690     5.8520 hc         1 0KU       0.051200
     39 H12         10.3830     0.2500     5.4500 hc         1 0KU       0.063700
     40 H11         10.0910     0.7560     7.1610 hc         1 0KU       0.063700
     41 H13         10.1260    -2.1110     6.0040 hc         1 0KU       0.064200
     42 H14         11.2530    -1.3830     7.2130 hc         1 0KU       0.064200
     43 H16          9.4950    -2.9400     8.2260 h1         1 0KU       0.076700
     44 H15          9.5260    -1.2620     8.9310 h1         1 0KU       0.076700
     45 H17          7.6070    -2.3670     7.0150 hn         1 0KU       0.334800
     46 H21          4.0450     4.8870     5.5600 hc         1 0KU       0.065367
     47 H19          2.8530     4.4770     6.8680 hc         1 0KU       0.065367
     48 H20          2.9080     3.4880     5.3440 hc         1 0KU       0.065367
     49 H23          5.6750     5.7400     7.2100 h1         1 0KU       0.058200
     50 H22          4.5560     5.3540     8.6100 h1         1 0KU       0.058200
     51 H24          6.6020     6.1530     9.3010 ho         1 0KU       0.431000
     52 H112         5.8600    -0.3980     5.1260 hn         1 0KU       0.474300
@<TRIPOS>BOND
     1     1     2 ar  
     2     1     6 ar  
     3     1     7 1   
     4     2     3 ar  
     5     2    29 1   
     6     3     4 ar  
     7     3    30 1   
     8     4     5 ar  
     9     4     8 1   
    10     5     6 ar  
    11     5    31 1   
    12     6    32 1   
    13     8     9 1   
    14     8    33 1   
    15     9    10 1   
    16     9    13 2   
    17    10    11 1   
    18    10    12 2   
    19    11    14 1   
    20    11    34 1   
    21    11    52 1   
    22    14    15 1   
    23    14    16 1   
    24    14    35 1   
    25    15    17 1   
    26    15    21 1   
    27    15    36 1   
    28    16    22 2   
    29    16    25 1   
    30    17    18 1   
    31    17    37 1   
    32    17    38 1   
    33    18    19 1   
    34    18    39 1   
    35    18    40 1   
    36    19    20 1   
    37    19    41 1   
    38    19    42 1   
    39    20    21 1   
    40    20    43 1   
    41    20    44 1   
    42    21    45 1   
    43    22    23 1   
    44    23    24 2   
    45    23    26 1   
    46    24    25 1   
    47    24    27 1   
    48    26    46 1   
    49    26    47 1   
    50    26    48 1   
    51    27    28 1   
    52    27    49 1   
    53    27    50 1   
    54    28    51 1   
@<TRIPOS>SUBSTRUCTURE
     1 0KU         1 TEMP              0 ****  ****    0 ROOT
