@<TRIPOS>MOLECULE
0KW
   55    57     1     0     0
SMALL
bcc


@<TRIPOS>ATOM
      1 C01         -0.2100     1.6910     1.5130 ca         1 0KW       0.019400
      2 C02          1.1140     1.3220     1.2640 ca         1 0KW      -0.100500
      3 C03          1.9110     0.8190     2.2890 ca         1 0KW      -0.134000
      4 C04          1.3830     0.6820     3.5870 ca         1 0KW       0.015600
      5 C05          0.0400     1.0570     3.8320 ca         1 0KW      -0.134000
      6 C06         -0.7440     1.5550     2.8010 ca         1 0KW      -0.100500
      7 Cl1         -1.1710     2.3000     0.2610 cl         1 0KW      -0.050400
      8 N08          2.1310     0.1660     4.6740 ns         1 0KW      -0.397100
      9 C09          3.4640    -0.1010     4.6670 c          1 0KW       0.635100
     10 C10          4.0100    -0.6330     6.0160 c          1 0KW       0.475100
     11 N11          5.5060    -0.6650     6.1040 ny         1 0KW      -0.649800
     12 O12          3.3590    -1.0320     6.9680 o          1 0KW      -0.412100
     13 O13          4.2720     0.0030     3.7280 o          1 0KW      -0.566100
     14 C14          6.0290     0.0210     7.3420 c3         1 0KW       0.124200
     15 C15          7.5610    -0.2500     7.5140 c3         1 0KW       0.153500
     16 C16          5.7220     1.4860     7.3450 cc         1 0KW       0.240700
     17 C17          8.3690     0.3720     6.3660 c3         1 0KW      -0.083400
     18 C18          9.8360     0.0210     6.4980 c3         1 0KW      -0.082400
     19 C19         10.0090    -1.4810     6.5280 c3         1 0KW      -0.087400
     20 C20          9.1720    -2.0990     7.6430 c3         1 0KW       0.158800
     21 N21          7.7770    -1.6870     7.6470 n7         1 0KW      -0.847200
     22 N22          4.6790     1.9970     6.6570 nd         1 0KW      -0.666000
     23 C23          4.5800     3.3530     6.8990 cd         1 0KW       0.369600
     24 C24          5.5560     3.8480     7.7850 cc         1 0KW      -0.180700
     25 S25          6.5690     2.6180     8.2790 ss         1 0KW       0.078700
     26 C26          3.5200     4.1910     6.2920 c3         1 0KW      -0.136400
     27 C27          5.6640     5.2400     8.2450 c3         1 0KW      -0.028100
     28 C28          6.4940     6.0950     7.2900 c3         1 0KW       0.139400
     29 O29          6.5110     7.3960     7.8490 oh         1 0KW      -0.593800
     30 H1           1.5390     1.4240     0.2510 ha         1 0KW       0.165000
     31 H2           2.9520     0.5360     2.0620 ha         1 0KW       0.158000
     32 H3          -0.4020     0.9570     4.8360 ha         1 0KW       0.158000
     33 H4          -1.7900     1.8420     3.0010 ha         1 0KW       0.165000
     34 H5           1.6260     0.0420     5.5300 hn         1 0KW       0.351500
     35 H6           5.8930    -0.2010     5.2660 hn         1 0KW       0.485300
     36 H7           5.4680    -0.4510     8.2120 hx         1 0KW       0.119700
     37 H8           7.8440     0.3060     8.4650 h1         1 0KW       0.060700
     38 H9           8.2320     1.4850     6.3970 hc         1 0KW       0.051700
     39 H10          8.0060     0.0080     5.3700 hc         1 0KW       0.051700
     40 H12         10.2550     0.4730     7.4360 hc         1 0KW       0.063200
     41 H11         10.4030     0.4550     5.6330 hc         1 0KW       0.063200
     42 H13         11.0840    -1.7430     6.7070 hc         1 0KW       0.065700
     43 H14          9.7140    -1.9190     5.5380 hc         1 0KW       0.065700
     44 H16          9.1670    -3.2200     7.5250 h1         1 0KW       0.055200
     45 H15          9.6680    -1.8580     8.6290 h1         1 0KW       0.055200
     46 H17          7.3430    -2.0110     8.4940 hn         1 0KW       0.373800
     47 H20          2.7090     4.3680     7.0450 hc         1 0KW       0.067367
     48 H19          3.0700     3.7110     5.3890 hc         1 0KW       0.067367
     49 H21          3.9500     5.1810     5.9950 hc         1 0KW       0.067367
     50 H22          6.1290     5.2880     9.2670 hc         1 0KW       0.085200
     51 H23          4.6370     5.6920     8.3320 hc         1 0KW       0.085200
     52 H25          7.5400     5.6970     7.2070 h1         1 0KW       0.027200
     53 H24          6.0270     6.1140     6.2690 h1         1 0KW       0.027200
     54 H26          7.0030     7.9570     7.2380 ho         1 0KW       0.416000
     55 H112         5.8280    -1.6450     6.1140 hn         1 0KW       0.485300
@<TRIPOS>BOND
     1     1     2 ar  
     2     1     6 ar  
     3     1     7 1   
     4     2     3 ar  
     5     2    30 1   
     6     3     4 ar  
     7     3    31 1   
     8     4     5 ar  
     9     4     8 1   
    10     5     6 ar  
    11     5    32 1   
    12     6    33 1   
    13     8     9 1   
    14     8    34 1   
    15     9    10 1   
    16     9    13 2   
    17    10    11 1   
    18    10    12 2   
    19    11    14 1   
    20    11    35 1   
    21    11    55 1   
    22    14    15 1   
    23    14    16 1   
    24    14    36 1   
    25    15    17 1   
    26    15    21 1   
    27    15    37 1   
    28    16    22 2   
    29    16    25 1   
    30    17    18 1   
    31    17    38 1   
    32    17    39 1   
    33    18    19 1   
    34    18    40 1   
    35    18    41 1   
    36    19    20 1   
    37    19    42 1   
    38    19    43 1   
    39    20    21 1   
    40    20    44 1   
    41    20    45 1   
    42    21    46 1   
    43    22    23 1   
    44    23    24 2   
    45    23    26 1   
    46    24    25 1   
    47    24    27 1   
    48    26    47 1   
    49    26    48 1   
    50    26    49 1   
    51    27    28 1   
    52    27    50 1   
    53    27    51 1   
    54    28    29 1   
    55    28    52 1   
    56    28    53 1   
    57    29    54 1   
@<TRIPOS>SUBSTRUCTURE
     1 0KW         1 TEMP              0 ****  ****    0 ROOT
