@<TRIPOS>MOLECULE
molecule
   54    56     1     0     0
SMALL
bcc


@<TRIPOS>ATOM
      1 C01          0.0000     0.0000     0.0000 ca         1 0KW       0.013400
      2 C02          1.3840     0.0000     0.0000 ca         1 0KW      -0.104000
      3 C03          2.0760     0.0000     1.1950 ca         1 0KW      -0.134500
      4 C04          1.3810     0.0000     2.3980 ca         1 0KW       0.053600
      5 C05         -0.0080     0.0000     2.3950 ca         1 0KW      -0.134500
      6 C06         -0.6940     0.0000     1.1970 ca         1 0KW      -0.104000
      7 Cl1         -0.8650     0.0080    -1.5040 cl         1 0KW      -0.108400
      8 N08          2.0780     0.0000     3.6100 ns         1 0KW      -0.450100
      9 C09          3.2590     0.6410     3.7080 c          1 0KW       0.595100
     10 C10          4.0600     0.5430     4.9640 c          1 0KW       0.593100
     11 N11          5.2420     1.1830     5.0620 ns         1 0KW      -0.541900
     12 O12          3.6480    -0.1150     5.8980 o          1 0KW      -0.606100
     13 O13          3.6720     1.2980     2.7740 o          1 0KW      -0.583100
     14 C14          6.0280     1.0860     6.2950 c3         1 0KW       0.108400
     15 C15          6.8850    -0.1800     6.2550 c3         1 0KW       0.157500
     16 C16          6.9220     2.2940     6.4160 cc         1 0KW       0.412700
     17 C17          5.9780    -1.4060     6.1320 c3         1 0KW      -0.068400
     18 C18          6.8380    -2.6720     6.1120 c3         1 0KW      -0.082400
     19 C19          7.6850    -2.7240     7.3870 c3         1 0KW      -0.079400
     20 C20          8.5430    -1.4600     7.4740 c3         1 0KW       0.163800
     21 N21          7.6740    -0.2770     7.4900 n7         1 0KW      -0.818200
     22 N22          7.6300     2.7890     5.4580 nc         1 0KW      -0.682000
     23 C23          8.3580     3.8520     5.7350 cc         1 0KW       0.375600
     24 C24          8.2580     4.2770     6.9980 cd         1 0KW      -0.148700
     25 S25          7.1380     3.2110     7.8440 ss         1 0KW      -0.164300
     26 C26          9.2350     4.5280     4.7130 c3         1 0KW      -0.117400
     27 C27          8.9730     5.4630     7.5930 c3         1 0KW       0.002900
     28 C28          8.1130     6.7170     7.4210 c3         1 0KW       0.143400
     29 O29          8.7920     7.8400     7.9850 oh         1 0KW      -0.611800
     30 H1           1.9250    -0.0000    -0.9380 ha         1 0KW       0.148000
     31 H2           3.1590    -0.0000     1.1950 ha         1 0KW       0.152500
     32 H3          -0.5530     0.0010     3.3320 ha         1 0KW       0.152500
     33 H4          -1.7770     0.0000     1.1940 ha         1 0KW       0.148000
     34 H5           1.6950    -0.4680     4.4080 hn         1 0KW       0.348500
     35 H6           5.5620     1.7590     4.3090 hn         1 0KW       0.354500
     36 H7           5.3600     1.0440     7.1470 h1         1 0KW       0.101700
     37 H8           7.5550    -0.1420     5.4040 h1         1 0KW       0.040700
     38 H9           5.3030    -1.4420     6.9780 hc         1 0KW       0.059700
     39 H10          5.4090    -1.3430     5.2120 hc         1 0KW       0.059700
     40 H12          7.4890    -2.6530     5.2470 hc         1 0KW       0.041700
     41 H11          6.1970    -3.5440     6.0700 hc         1 0KW       0.041700
     42 H13          7.0340    -2.7780     8.2510 hc         1 0KW       0.049200
     43 H14          8.3290    -3.5950     7.3570 hc         1 0KW       0.049200
     44 H16          9.2010    -1.4110     6.6150 h1         1 0KW       0.033200
     45 H15          9.1300    -1.4860     8.3840 h1         1 0KW       0.033200
     46 H17          8.2330     0.5470     7.5940 hn         1 0KW       0.352800
     47 H20          9.2770     3.9230     3.8160 hc         1 0KW       0.053367
     48 H19          8.8240     5.5020     4.4730 hc         1 0KW       0.053367
     49 H21         10.2340     4.6470     5.1160 hc         1 0KW       0.053367
     50 H22          9.1480     5.2870     8.6480 hc         1 0KW       0.068700
     51 H23          9.9210     5.6030     7.0890 hc         1 0KW       0.068700
     52 H25          7.9380     6.8920     6.3660 h1         1 0KW       0.025700
     53 H24          7.1650     6.5770     7.9250 h1         1 0KW       0.025700
     54 H26          8.2280     8.5950     7.9560 ho         1 0KW       0.407000
@<TRIPOS>BOND
     1    19    20 1   
     2    19    18 1   
     3    20    21 1   
     4    29    28 1   
     5    26    23 1   
     6    18    17 1   
     7    27    28 1   
     8    27    24 1   
     9    23    24 2   
    10    23    22 1   
    11    24    25 1   
    12    21    15 1   
    13    22    16 2   
    14    15    17 1   
    15    15    14 1   
    16    25    16 1   
    17    16    14 1   
    18    14    11 1   
    19    11    10 1   
    20    10    12 2   
    21    10     9 1   
    22    13     9 2   
    23     9     8 1   
    24     8     4 1   
    25     3     4 ar  
    26     3     2 ar  
    27     4     5 ar  
    28     2     1 ar  
    29     5     6 ar  
    30     1     6 ar  
    31     1     7 1   
    32     2    30 1   
    33     3    31 1   
    34     5    32 1   
    35     6    33 1   
    36     8    34 1   
    37    11    35 1   
    38    14    36 1   
    39    15    37 1   
    40    17    38 1   
    41    17    39 1   
    42    18    40 1   
    43    18    41 1   
    44    19    42 1   
    45    19    43 1   
    46    20    44 1   
    47    20    45 1   
    48    21    46 1   
    49    26    47 1   
    50    26    48 1   
    51    26    49 1   
    52    27    50 1   
    53    27    51 1   
    54    28    52 1   
    55    28    53 1   
    56    29    54 1   
@<TRIPOS>SUBSTRUCTURE
     1 0KW         1 TEMP              0 ****  ****    0 ROOT
