@<TRIPOS>MOLECULE
molecule
   43    44     1     0     0
SMALL
bcc


@<TRIPOS>ATOM
      1 PG           0.0000     0.0000     0.0000 p5         1 0KX       1.440900
      2 O1G          1.5120     0.0000     0.0000 o          1 0KX      -0.904167
      3 O2G         -0.5040     0.0000     1.4260 o          1 0KX      -0.904167
      4 O3G         -0.5040     1.2350    -0.7130 o          1 0KX      -0.904167
      5 PB          -0.3000    -1.6300    -2.1880 p5         1 0KX       1.431700
      6 O1B          0.9350    -2.4990    -2.2500 o          1 0KX      -0.818000
      7 O2B          0.0250    -0.3080    -2.9900 o          1 0KX      -0.818000
      8 O3B         -0.5520    -1.3520    -0.7800 os         1 0KX      -0.746800
      9 PA          -2.9320    -2.7390    -1.9800 p5         1 0KX       1.507700
     10 O1A         -4.1850    -2.9040    -2.9090 o          1 0KX      -0.643500
     11 O2A         -3.2580    -1.4300    -1.0750 o          1 0KX      -0.643500
     12 N3A         -1.5710    -2.4290    -2.9370 ny         1 0KX      -0.889200
     13 O5'         -2.6960    -3.9830    -1.0160 os         1 0KX      -0.589200
     14 C5'         -1.9730    -3.8750     0.1870 c3         1 0KX       0.120400
     15 C4'         -1.0990    -4.9730     0.4730 c3         1 0KX       0.108100
     16 O4'         -1.8870    -6.1920     0.4340 os         1 0KX      -0.414600
     17 C3'         -0.1450    -5.0960    -0.6350 c3         1 0KX       0.132100
     18 O3'          0.9780    -4.4190    -0.3790 oh         1 0KX      -0.648800
     19 C2'          0.1130    -6.5380    -0.7310 c3         1 0KX      -0.130400
     20 C1'         -1.1560    -7.1670    -0.2750 c3         1 0KX       0.292500
     21 N1          -1.8410    -7.6900    -1.4290 n          1 0KX      -0.377000
     22 C2          -1.7220    -8.9820    -1.7770 c          1 0KX       0.832900
     23 N3          -2.3630    -9.4790    -2.8360 nc         1 0KX      -0.753100
     24 C4          -3.1510    -8.6980    -3.6000 cd         1 0KX       0.720500
     25 C5          -3.2880    -7.3620    -3.2590 cd         1 0KX      -0.448600
     26 C6          -2.6130    -6.8660    -2.1480 cc         1 0KX       0.104600
     27 O2          -1.0590    -9.6910    -1.1410 o          1 0KX      -0.679500
     28 N4          -3.8100    -9.2080    -4.7040 nz         1 0KX      -1.102600
     29 H5          -1.8630    -1.8800    -3.7210 hn         1 0KX       0.474300
     30 H6          -2.6800    -3.7820     1.0020 h1         1 0KX       0.088700
     31 H7          -1.3780    -2.9700     0.1460 h1         1 0KX       0.088700
     32 H8          -0.5940    -4.8550     1.4240 h1         1 0KX       0.057700
     33 H9          -0.5980    -4.7410    -1.5530 h1         1 0KX       0.129700
     34 H10          1.7210    -4.9890    -0.4890 ho         1 0KX       0.481000
     35 H11          0.3250    -6.8170    -1.7570 hc         1 0KX       0.058700
     36 H12          0.9300    -6.8200    -0.0780 hc         1 0KX       0.058700
     37 H13         -0.9190    -7.9830     0.3970 h2         1 0KX       0.100700
     38 H14         -3.9160    -6.7090    -3.8520 ha         1 0KX       0.208000
     39 H15         -2.8370    -5.8730    -1.7770 h4         1 0KX       0.218000
     40 H16         -3.6120   -10.1850    -4.7900 hn         1 0KX       0.428133
     41 H17         -3.5000    -8.7310    -5.5280 hn         1 0KX       0.428133
     42 H43         -4.7970    -9.0770    -4.5940 hn         1 0KX       0.428133
     43 H3A2        -1.2320    -3.3120    -3.2630 hn         1 0KX       0.474300
@<TRIPOS>BOND
     1    16    15 1   
     2    16    20 1   
     3    15    14 1   
     4    15    17 1   
     5    14    13 1   
     6    20    21 1   
     7    20    19 1   
     8    13     9 1   
     9    10     9 1   
    10    27    22 2   
    11    21    22 1   
    12    21    26 1   
    13    17    19 1   
    14    17    18 1   
    15    22    23 1   
    16    26    25 2   
    17     7     5 1   
    18     9    11 1   
    19     9    12 1   
    20    23    24 2   
    21    25    24 1   
    22    24    28 1   
    23     3     1 1   
    24     5    12 1   
    25     5     6 1   
    26     5     8 1   
    27     1     8 1   
    28     1     4 1   
    29     1     2 1   
    30    12    29 1   
    31    14    30 1   
    32    14    31 1   
    33    15    32 1   
    34    17    33 1   
    35    18    34 1   
    36    19    35 1   
    37    19    36 1   
    38    20    37 1   
    39    25    38 1   
    40    26    39 1   
    41    28    40 1   
    42    28    41 1   
    43    42    28 1   
    44    43    12 1   
@<TRIPOS>SUBSTRUCTURE
     1 0KX         1 TEMP              0 ****  ****    0 ROOT
