@<TRIPOS>MOLECULE
molecule
   42    43     1     0     0
SMALL
bcc


@<TRIPOS>ATOM
      1 PG           0.0000     0.0000     0.0000 p5         1 0KX       1.290900
      2 O1G          1.6100     0.0000     0.0000 o          1 0KX      -0.662500
      3 O2G         -0.5370     0.0000     1.5180 o          1 0KX      -0.662500
      4 O3G         -0.4940     1.2090    -0.6970 o          1 0KX      -0.662500
      5 PB          -1.9360    -1.7150    -1.4470 p5         1 0KX       1.411700
      6 O1B         -3.1110    -1.6570    -0.3480 o          1 0KX      -0.650000
      7 O2B         -2.2370    -0.7650    -2.5410 o          1 0KX      -0.650000
      8 O3B         -0.5380    -1.3140    -0.7580 os         1 0KX      -0.714800
      9 PA          -3.2730    -3.7330    -2.8010 p5         1 0KX       1.265700
     10 O1A         -3.6130    -2.7170    -4.0040 o          1 0KX      -0.790500
     11 O2A         -4.3640    -3.6960    -1.8030 o          1 0KX      -0.790500
     12 N3A         -1.8280    -3.2740    -2.0710 n7         1 0KX      -0.922400
     13 O5'         -3.1290    -5.2270    -3.3850 os         1 0KX      -0.570200
     14 C5'         -3.1410    -6.3900    -2.5560 c3         1 0KX       0.218400
     15 C4'         -2.9830    -7.6380    -3.4270 c3         1 0KX       0.135100
     16 O4'         -1.6490    -7.7030    -3.9760 os         1 0KX      -0.356600
     17 C3'         -3.1180    -8.9150    -2.5670 c3         1 0KX       0.105100
     18 O3'         -4.4380    -9.4510    -2.6700 oh         1 0KX      -0.617800
     19 C2'         -2.0880    -9.8900    -3.1780 c3         1 0KX      -0.146400
     20 C1'         -1.4530    -9.0880    -4.3360 c3         1 0KX       0.319500
     21 N1          -0.0230    -9.3900    -4.4410 n          1 0KX      -0.386000
     22 C2           0.7990    -9.1050    -3.4140 c          1 0KX       0.853900
     23 N3           2.1020    -9.3680    -3.4830 nc         1 0KX      -0.840100
     24 C4           2.6260    -9.9200    -4.5700 cd         1 0KX       0.177500
     25 C5           1.7920   -10.2310    -5.6630 cd         1 0KX      -0.298600
     26 C6           0.4670    -9.9630    -5.5760 cc         1 0KX      -0.083400
     27 O2           0.3420    -8.5950    -2.4040 o          1 0KX      -0.701500
     28 N4           3.9730   -10.1860    -4.6290 nz         1 0KX      -0.626600
     29 H5          -1.2590    -3.9580    -1.6130 hn         1 0KX       0.390800
     30 H6          -4.0790    -6.4410    -2.0180 h1         1 0KX       0.029700
     31 H7          -2.3220    -6.3370    -1.8490 h1         1 0KX       0.029700
     32 H8          -3.7170    -7.6440    -4.2230 h1         1 0KX       0.054700
     33 H9          -2.8680    -8.7020    -1.5340 h1         1 0KX       0.056700
     34 H10         -4.7100    -9.7810    -1.8290 ho         1 0KX       0.383000
     35 H11         -2.5840   -10.7750    -3.5590 hc         1 0KX       0.054200
     36 H12         -1.3360   -10.1550    -2.4450 hc         1 0KX       0.054200
     37 H13         -1.9600    -9.3090    -5.2670 h2         1 0KX       0.029700
     38 H14          2.2280   -10.5040    -6.6170 ha         1 0KX       0.069000
     39 H15         -0.1620   -10.0530    -6.4530 h4         1 0KX       0.112000
     40 H16          4.4070    -9.5710    -5.2890 hn         1 0KX       0.362800
     41 H17          4.3810   -10.0470    -3.7260 hn         1 0KX       0.362800
     42 H43          4.1130   -11.1350    -4.9160 hn         1 0KX       0.362800
@<TRIPOS>BOND
     1    16    15 1
     2    16    20 1
     3    15    14 1
     4    15    17 1
     5    14    13 1
     6    20    21 1
     7    20    19 1
     8    13     9 1
     9    10     9 1
    10    27    22 2
    11    21    22 1
    12    21    26 1
    13    17    19 1
    14    17    18 1
    15    22    23 1
    16    26    25 2
    17     7     5 1
    18     9    11 1
    19     9    12 1
    20    23    24 2
    21    25    24 1
    22    24    28 1
    23     3     1 1
    24     5    12 1
    25     5     6 1
    26     5     8 1
    27     1     8 1
    28     1     4 1
    29     1     2 1
    30    12    29 1
    31    14    30 1
    32    14    31 1
    33    15    32 1
    34    17    33 1
    35    18    34 1
    36    19    35 1
    37    19    36 1
    38    20    37 1
    39    25    38 1
    40    26    39 1
    41    28    40 1
    42    28    41 1
    43    42    28 1
@<TRIPOS>SUBSTRUCTURE
     1 0KX         1 TEMP              0 ****  ****    0 ROOT
