@<TRIPOS>MOLECULE
0KY
   31    32     1     0     0
SMALL
bcc


@<TRIPOS>ATOM
      1 S            0.2720     0.4430    -0.0560 s          1 0KY      -0.534400
      2 C9           1.8810     0.2680    -0.0230 cs         1 0KY       0.574400
      3 N2           2.5400     0.2050     1.2000 ns         1 0KY      -0.546500
      4 N1           2.6330     0.1810    -1.2120 n          1 0KY      -0.292000
      5 C5           1.9770     0.0900    -2.4990 c3         1 0KY       0.075000
      6 C3           2.0160     1.3560    -3.3790 c3         1 0KY       0.134100
      7 O1           3.3190     1.3790    -3.9680 os         1 0KY      -0.467600
      8 C2           3.4710     2.3770    -4.9780 c3         1 0KY       0.133400
      9 C1           4.8330     2.1640    -5.5980 c3         1 0KY      -0.102100
     10 C4           1.7050     2.6280    -2.6220 c3         1 0KY      -0.135100
     11 C6           4.0160     0.0750    -1.0980 cc         1 0KY      -0.025000
     12 N4           5.0000    -0.0000    -2.0820 na         1 0KY      -0.310900
     13 C10          6.2270    -0.0860    -1.3860 cc         1 0KY       0.390400
     14 N3           6.0750    -0.0980    -0.0480 nd         1 0KY      -0.575000
     15 C7           4.7000     0.0040     0.1630 cd         1 0KY       0.200800
     16 C8           3.9380     0.0610     1.3990 c          1 0KY       0.644000
     17 O2           4.3680     0.0030     2.5570 o          1 0KY      -0.571500
     18 H1           1.9550     0.2680     2.0130 hn         1 0KY       0.366500
     19 H2           0.8850    -0.1560    -2.3180 h1         1 0KY       0.096200
     20 H3           2.4580    -0.7530    -3.0740 h1         1 0KY       0.096200
     21 H4           1.2550     1.2020    -4.1990 h1         1 0KY       0.053700
     22 H5           2.6560     2.2660    -5.7420 h1         1 0KY       0.035700
     23 H6           3.3970     3.3930    -4.5060 h1         1 0KY       0.035700
     24 H7           4.8940     1.1550    -6.0720 hc         1 0KY       0.046700
     25 H8           5.6310     2.2390    -4.8220 hc         1 0KY       0.046700
     26 H9           5.0080     2.9430    -6.3770 hc         1 0KY       0.046700
     27 H10          2.5970     2.9750    -2.0470 hc         1 0KY       0.058367
     28 H11          0.8620     2.4440    -1.9090 hc         1 0KY       0.058367
     29 H12          1.4070     3.4370    -3.3310 hc         1 0KY       0.058367
     30 H13          4.8650     0.1610    -3.0520 hn         1 0KY       0.335700
     31 H14          7.1820    -0.1550    -1.9200 h5         1 0KY       0.073100
@<TRIPOS>BOND
     1     1     2 2   
     2     2     3 1   
     3     2     4 1   
     4     3    16 1   
     5     3    18 1   
     6     4     5 1   
     7     4    11 1   
     8     5     6 1   
     9     5    19 1   
    10     5    20 1   
    11     6     7 1   
    12     6    10 1   
    13     6    21 1   
    14     7     8 1   
    15     8     9 1   
    16     8    22 1   
    17     8    23 1   
    18     9    24 1   
    19     9    25 1   
    20     9    26 1   
    21    10    27 1   
    22    10    28 1   
    23    10    29 1   
    24    11    12 1   
    25    11    15 2   
    26    12    13 1   
    27    12    30 1   
    28    13    14 2   
    29    13    31 1   
    30    14    15 1   
    31    15    16 1   
    32    16    17 2   
@<TRIPOS>SUBSTRUCTURE
     1 0KY         1 TEMP              0 ****  ****    0 ROOT
