@<TRIPOS>MOLECULE
0KY
   31    32     1     0     0
SMALL
bcc


@<TRIPOS>ATOM
      1 S            0.0000     0.0000     0.0000 s          1 0KY      -0.641400
      2 C9           1.7130     0.0000     0.0000 cs         1 0KY       0.249400
      3 N2           2.3610     0.0000     1.1760 ns         1 0KY      -0.014500
      4 N1           2.3610    -0.0050    -1.1780 n          1 0KY       0.244000
      5 C5           1.5940    -0.0100    -2.4260 c3         1 0KY      -0.040000
      6 C3           1.3260     1.4310    -2.8660 c3         1 0KY       0.164100
      7 O1           0.5820     2.1090    -1.8530 os         1 0KY      -0.366600
      8 C2           0.8350     3.5140    -1.7870 c3         1 0KY       0.194400
      9 C1          -0.0120     4.1320    -0.6730 c3         1 0KY       0.001900
     10 C4           0.5250     1.4260    -4.1700 c3         1 0KY      -0.024100
     11 C6           3.7350    -0.0040    -1.2250 cc         1 0KY      -0.441000
     12 N4           4.6530    -0.0080    -2.2280 na         1 0KY       0.267100
     13 C10          5.8900    -0.0050    -1.6540 cc         1 0KY       0.210400
     14 N3           5.7700     0.0000    -0.3580 nd         1 0KY      -0.498000
     15 C7           4.4540     0.0010    -0.0360 cd         1 0KY       0.212800
     16 C8           3.7110    -0.0060     1.2250 c          1 0KY       0.515000
     17 O2           4.2950    -0.0130     2.2930 o          1 0KY      -0.607500
     18 H1           1.8360     0.0040     2.0290 hn         1 0KY       0.220500
     19 H2           2.1590    -0.5240    -3.1950 h1         1 0KY       0.069200
     20 H3           0.6520    -0.5210    -2.2680 h1         1 0KY       0.069200
     21 H4           2.2690     1.9410    -3.0240 h1         1 0KY      -0.004300
     22 H5           0.5760     3.9720    -2.7340 h1         1 0KY      -0.014300
     23 H6           1.8840     3.6820    -1.5790 h1         1 0KY      -0.014300
     24 H7          -0.0750     5.2030    -0.8200 hc         1 0KY       0.013033
     25 H8           0.4470     3.9260     0.2860 hc         1 0KY       0.013033
     26 H9          -1.0070     3.7050    -0.6960 hc         1 0KY       0.013033
     27 H10          0.5720     2.4070    -4.6260 hc         1 0KY       0.015700
     28 H11          0.9440     0.6920    -4.8480 hc         1 0KY       0.015700
     29 H12         -0.5070     1.1750    -3.9590 hc         1 0KY       0.015700
     30 H13          4.4570    -0.0120    -3.2090 hn         1 0KY       0.129700
     31 H14          6.8290    -0.0070    -2.1950 h5         1 0KY       0.035100
@<TRIPOS>BOND
     1     1     2 2   
     2     2     3 1   
     3     2     4 1   
     4     3    16 1   
     5     3    18 1   
     6     4     5 1   
     7     4    11 1   
     8     5     6 1   
     9     5    19 1   
    10     5    20 1   
    11     6     7 1   
    12     6    10 1   
    13     6    21 1   
    14     7     8 1   
    15     8     9 1   
    16     8    22 1   
    17     8    23 1   
    18     9    24 1   
    19     9    25 1   
    20     9    26 1   
    21    10    27 1   
    22    10    28 1   
    23    10    29 1   
    24    11    12 1   
    25    11    15 2   
    26    12    13 1   
    27    12    30 1   
    28    13    14 2   
    29    13    31 1   
    30    14    15 1   
    31    15    16 1   
    32    16    17 2   
@<TRIPOS>SUBSTRUCTURE
     1 0KY         1 TEMP              0 ****  ****    0 ROOT
