@<TRIPOS>MOLECULE
molecule
   31    32     1     0     0
SMALL
bcc


@<TRIPOS>ATOM
      1 S            0.0000     0.0000     0.0000 s          1 0KY      -0.587400
      2 C9           1.7130     0.0000     0.0000 cs         1 0KY       0.593400
      3 N2           2.3610     0.0000     1.1760 ns         1 0KY      -0.497500
      4 N1           2.3610    -0.0050    -1.1780 n          1 0KY      -0.265000
      5 C5           1.5940    -0.0100    -2.4260 c3         1 0KY       0.087000
      6 C3           1.3260     1.4310    -2.8660 c3         1 0KY       0.125100
      7 O1           0.5820     2.1090    -1.8530 os         1 0KY      -0.389600
      8 C2           0.8350     3.5140    -1.7870 c3         1 0KY       0.126400
      9 C1          -0.0120     4.1320    -0.6730 c3         1 0KY      -0.088100
     10 C4           0.5250     1.4260    -4.1700 c3         1 0KY      -0.117100
     11 C6           3.7350    -0.0040    -1.2250 cc         1 0KY      -0.075000
     12 N4           4.6530    -0.0080    -2.2280 na         1 0KY      -0.299900
     13 C10          5.8900    -0.0050    -1.6540 cd         1 0KY       0.406400
     14 N3           5.7700     0.0000    -0.3580 nc         1 0KY      -0.605000
     15 C7           4.4540     0.0010    -0.0360 cc         1 0KY       0.234800
     16 C8           3.7110    -0.0060     1.2250 c          1 0KY       0.619000
     17 O2           4.2950    -0.0130     2.2930 o          1 0KY      -0.572500
     18 H1           1.8360     0.0040     2.0290 hn         1 0KY       0.386500
     19 H2           2.1590    -0.5240    -3.1950 h1         1 0KY       0.090200
     20 H3           0.6520    -0.5210    -2.2680 h1         1 0KY       0.090200
     21 H4           2.2690     1.9410    -3.0240 h1         1 0KY       0.027700
     22 H5           0.5760     3.9720    -2.7340 h1         1 0KY       0.019200
     23 H6           1.8840     3.6820    -1.5790 h1         1 0KY       0.019200
     24 H7          -0.0750     5.2030    -0.8200 hc         1 0KY       0.047700
     25 H8           0.4470     3.9260     0.2860 hc         1 0KY       0.047700
     26 H9          -1.0070     3.7050    -0.6960 hc         1 0KY       0.047700
     27 H10          0.5720     2.4070    -4.6260 hc         1 0KY       0.048033
     28 H11          0.9440     0.6920    -4.8480 hc         1 0KY       0.048033
     29 H12         -0.5070     1.1750    -3.9590 hc         1 0KY       0.048033
     30 H13          4.4570    -0.0120    -3.2090 hn         1 0KY       0.307700
     31 H14          6.8290    -0.0070    -2.1950 h5         1 0KY       0.081100
@<TRIPOS>BOND
     1    17    16 2   
     2    16    15 1   
     3    16     3 1   
     4    14    15 1   
     5    14    13 2   
     6    15    11 2   
     7     3     2 1   
     8    13    12 1   
     9    11    12 1   
    10    11     4 1   
    11     2     4 1   
    12     2     1 2   
    13     4     5 1   
    14    10     6 1   
    15     6     5 1   
    16     6     7 1   
    17     7     8 1   
    18     9     8 1   
    19     3    18 1   
    20     5    19 1   
    21     5    20 1   
    22     6    21 1   
    23     8    22 1   
    24     8    23 1   
    25     9    24 1   
    26     9    25 1   
    27     9    26 1   
    28    10    27 1   
    29    10    28 1   
    30    10    29 1   
    31    12    30 1   
    32    13    31 1   
@<TRIPOS>SUBSTRUCTURE
     1 0KY         1 TEMP              0 ****  ****    0 ROOT
