@<TRIPOS>MOLECULE
0L0
   62    65     1     0     0
SMALL
bcc


@<TRIPOS>ATOM
      1 N44          0.0600    -0.1630     0.1240 n          1 0L0      -0.202900
      2 C33         -0.1710     0.9240    -4.6070 c3         1 0L0       0.135100
      3 C7          -4.5020     1.1180    -7.2920 c3         1 0L0      -0.147400
      4 C6          -0.3420     1.9810    -6.8430 ca         1 0L0      -0.150600
      5 C13          6.3140     1.9470    -1.5180 ca         1 0L0      -0.122000
      6 C8           1.1140     2.3710    -6.9110 c3         1 0L0       0.248700
      7 C16          7.3920     3.1130     0.7760 ca         1 0L0      -0.135000
      8 C19          3.8650    -1.0000     3.3980 c3         1 0L0       0.116700
      9 C26          1.4720    -0.2570     0.0430 cc         1 0L0       0.269200
     10 C1          -0.9930     1.2980    -5.7980 ca         1 0L0      -0.047300
     11 C2          -2.3630     1.0130    -5.9790 ca         1 0L0      -0.028200
     12 C3          -3.0490     1.4330    -7.1490 ca         1 0L0       0.336600
     13 N4          -2.4130     2.1010    -8.1390 nb         1 0L0      -0.652000
     14 C5          -1.1080     2.3520    -7.9750 ca         1 0L0       0.365200
     15 O9          -1.9780    -0.3150    -0.9400 o          1 0L0      -0.679100
     16 N10         -0.8650     0.2210    -3.4970 ny         1 0L0      -0.558800
     17 C11          5.7780    -0.1570    -0.2560 c3         1 0L0       0.018100
     18 C12          6.3230     1.2320    -0.3140 ca         1 0L0      -0.070300
     19 C14          6.8430     3.2360    -1.5710 ca         1 0L0      -0.135000
     20 C15          7.3850     3.8200    -0.4260 ca         1 0L0      -0.143000
     21 C17          6.8630     1.8250     0.8330 ca         1 0L0      -0.122000
     22 O18          4.4910    -0.6970     2.1590 os         1 0L0      -0.332900
     23 C22          3.6470    -0.4640     1.0840 cd         1 0L0       0.156100
     24 C23          4.2920    -0.1880    -0.1440 cd         1 0L0      -0.146200
     25 C24          3.5030     0.0310    -1.2690 cc         1 0L0      -0.009000
     26 C25          2.2570    -0.5040     1.1890 cc         1 0L0      -0.335600
     27 C27          2.1020    -0.0080    -1.2120 cc         1 0L0      -0.255700
     28 C28          1.3360     0.1750    -2.4070 c1         1 0L0      -0.070800
     29 C29         -0.0250     0.0940    -2.3100 ce         1 0L0      -0.348300
     30 C30         -0.7370    -0.1750    -1.0650 c          1 0L0       0.636300
     31 O31         -0.4770    -0.7670     1.1900 oh         1 0L0      -0.420100
     32 O45         -3.0540     0.3570    -4.9750 oh         1 0L0      -0.541100
     33 P46          2.9880     0.7280    -6.1520 p5         1 0L0       1.429800
     34 O47          1.8910     1.9710    -5.8460 os         1 0L0      -0.576200
     35 O48          2.0810    -0.4330    -6.3040 o          1 0L0      -0.833500
     36 O49          3.9550     1.2110    -7.1490 o          1 0L0      -0.833500
     37 O50          3.5680     0.7030    -4.6480 oh         1 0L0      -0.790400
     38 H1           0.6940     0.2490    -4.9600 hx         1 0L0       0.169200
     39 H2           0.3110     1.8540    -4.1760 hx         1 0L0       0.169200
     40 H3          -4.6370     0.0140    -7.4230 hc         1 0L0       0.047033
     41 H4          -4.9550     1.6320    -8.1750 hc         1 0L0       0.047033
     42 H5          -5.0490     1.4430    -6.3720 hc         1 0L0       0.047033
     43 H6           5.8770     1.4950    -2.4240 ha         1 0L0       0.144500
     44 H7           1.5370     1.9580    -7.8750 h1         1 0L0       0.036700
     45 H8           1.1400     3.5010    -6.9610 h1         1 0L0       0.036700
     46 H9           7.8130     3.5720     1.6810 ha         1 0L0       0.125500
     47 H10          3.2540    -1.9310     3.3170 h1         1 0L0       0.038367
     48 H11          4.7270    -1.1540     4.0950 h1         1 0L0       0.038367
     49 H12          3.2320    -0.1460     3.7410 h1         1 0L0       0.038367
     50 H13         -0.6210     2.8870    -8.8120 h4         1 0L0       0.024100
     51 H14         -1.1390    -0.7130    -3.8160 hn         1 0L0       0.424800
     52 H15          6.2330    -0.7030     0.6140 hc         1 0L0       0.057200
     53 H16          6.0800    -0.7040    -1.1920 hc         1 0L0       0.057200
     54 H17          6.8270     3.7910    -2.5200 ha         1 0L0       0.125500
     55 H18          7.8010     4.8360    -0.4700 ha         1 0L0       0.118000
     56 H19          6.8590     1.2710     1.7840 ha         1 0L0       0.144500
     57 H20          3.9780     0.2390    -2.2470 ha         1 0L0       0.182000
     58 H21          1.7630    -0.7240     2.1450 ha         1 0L0       0.144000
     59 H22          2.8850     0.5310    -3.9910 ho         1 0L0       0.475000
     60 H23         -1.3240    -0.3020     1.3490 ho         1 0L0       0.429000
     61 H24         -3.7340    -0.1910    -5.3930 ho         1 0L0       0.429000
     62 H102        -1.7250     0.7190    -3.2360 hn         1 0L0       0.424800
@<TRIPOS>BOND
     1     1     9 2   
     2     1    30 1   
     3     1    31 1   
     4     2    10 1   
     5     2    16 1   
     6     2    38 1   
     7     2    39 1   
     8     3    12 1   
     9     3    40 1   
    10     3    41 1   
    11     3    42 1   
    12     4     6 1   
    13     4    10 ar  
    14     4    14 ar  
    15     5    18 ar  
    16     5    19 ar  
    17     5    43 1   
    18     6    34 1   
    19     6    44 1   
    20     6    45 1   
    21     7    20 ar  
    22     7    21 ar  
    23     7    46 1   
    24     8    22 1   
    25     8    47 1   
    26     8    48 1   
    27     8    49 1   
    28     9    26 1   
    29     9    27 1   
    30    10    11 ar  
    31    11    12 ar  
    32    11    32 1   
    33    12    13 ar  
    34    13    14 ar  
    35    14    50 1   
    36    15    30 2   
    37    16    29 1   
    38    16    51 1   
    39    16    62 1   
    40    17    18 1   
    41    17    24 1   
    42    17    52 1   
    43    17    53 1   
    44    18    21 ar  
    45    19    20 ar  
    46    19    54 1   
    47    20    55 1   
    48    21    56 1   
    49    22    23 1   
    50    23    24 1   
    51    23    26 2   
    52    24    25 2   
    53    25    27 1   
    54    25    57 1   
    55    26    58 1   
    56    27    28 2   
    57    28    29 2   
    58    29    30 1   
    59    31    60 1   
    60    32    61 1   
    61    33    34 1   
    62    33    35 1   
    63    33    36 1   
    64    33    37 1   
    65    37    59 1   
@<TRIPOS>SUBSTRUCTURE
     1 0L0         1 TEMP              0 ****  ****    0 ROOT
