@<TRIPOS>MOLECULE
molecule
   61    64     1     0     0
SMALL
bcc


@<TRIPOS>ATOM
      1 N44          0.0000     0.0000     0.0000 n          1 0L0      -0.212500
      2 C33         -2.2130    -0.0010    -3.5840 c3         1 0L0       0.289100
      3 C7          -3.8070     2.4360    -7.6780 c3         1 0L0      -0.127400
      4 C6          -3.0180    -1.1920    -5.6490 ca         1 0L0      -0.133600
      5 C13          6.4040    -2.1730    -1.0260 ca         1 0L0      -0.118000
      6 C8          -2.7480    -2.5110    -4.9750 c3         1 0L0       0.244700
      7 C16          6.8660    -3.2570     1.4750 ca         1 0L0      -0.129500
      8 C19          3.3810     0.0000     3.5600 c3         1 0L0       0.128700
      9 C26          1.3800     0.0000     0.0000 ca         1 0L0       0.087600
     10 C1          -2.7600    -0.0010    -4.9880 ca         1 0L0      -0.139300
     11 C2          -3.0180     1.1930    -5.6530 ca         1 0L0      -0.030200
     12 C3          -3.5220     1.1510    -6.9440 ca         1 0L0       0.348600
     13 N4          -3.7550    -0.0040    -7.5380 nb         1 0L0      -0.698000
     14 C5          -3.5200    -1.1530    -6.9360 ca         1 0L0       0.443200
     15 O9          -1.9130    -0.0060    -1.1170 o          1 0L0      -0.618500
     16 N10         -0.7480    -0.0010    -3.6310 nu         1 0L0      -0.766000
     17 C11          5.6700    -0.0030    -0.0180 c3         1 0L0       0.025200
     18 C12          6.1700    -1.4180     0.1090 ca         1 0L0      -0.072300
     19 C14          6.8630    -3.4720    -0.9100 ca         1 0L0      -0.129500
     20 C15          7.0950    -4.0140     0.3410 ca         1 0L0      -0.134000
     21 C17          6.3960    -1.9640     1.3590 ca         1 0L0      -0.118000
     22 O18          4.1520    -0.0010     2.3570 os         1 0L0      -0.337900
     23 C22          3.4670    -0.0010     1.1840 ca         1 0L0       0.144100
     24 C23          4.1630    -0.0020    -0.0220 ca         1 0L0      -0.126300
     25 C24          3.4890    -0.0020    -1.2090 ca         1 0L0      -0.064000
     26 C25          2.0830     0.0000     1.1990 ca         1 0L0      -0.245000
     27 C27          2.0890    -0.0020    -1.2160 ca         1 0L0      -0.065800
     28 C28          1.3510    -0.0010    -2.4800 cc         1 0L0      -0.240200
     29 C29         -0.0100    -0.0000    -2.4420 cd         1 0L0       0.138800
     30 C30         -0.6960    -0.0010    -1.1510 c          1 0L0       0.698700
     31 O31         -0.6960    -0.0060     1.2330 oh         1 0L0      -0.363100
     32 O45         -2.7810     2.3850    -5.0450 oh         1 0L0      -0.529100
     33 P46         -2.9300    -5.1320    -5.4690 p5         1 0L0       1.162900
     34 O47         -3.0900    -3.5780    -5.8620 os         1 0L0      -0.576200
     35 O48         -3.6650    -5.4010    -4.2130 o          1 0L0      -0.899500
     36 O49         -3.5290    -6.0480    -6.6490 o          1 0L0      -0.899500
     37 O50         -1.3700    -5.4740    -5.2610 o          1 0L0      -0.899500
     38 H1          -2.5570    -0.8850    -3.0620 h1         1 0L0       0.068700
     39 H2          -2.5570     0.8840    -3.0620 h1         1 0L0       0.068700
     40 H3          -4.0110     2.2200    -8.7190 hc         1 0L0       0.034700
     41 H4          -2.9470     3.0910    -7.6060 hc         1 0L0       0.034700
     42 H5          -4.6680     2.9210    -7.2350 hc         1 0L0       0.034700
     43 H6           6.2220    -1.7480    -2.0060 ha         1 0L0       0.133000
     44 H7          -1.6980    -2.5780    -4.7180 h1         1 0L0       0.042200
     45 H8          -3.3460    -2.5860    -4.0740 h1         1 0L0       0.042200
     46 H9           7.0450    -3.6830     2.4550 ha         1 0L0       0.124000
     47 H10          2.7430     0.8750     3.5780 h1         1 0L0       0.037367
     48 H11          4.0460     0.0210     4.4150 h1         1 0L0       0.037367
     49 H12          2.7700    -0.8940     3.5980 h1         1 0L0       0.037367
     50 H13         -3.7240    -2.0800    -7.4580 h4         1 0L0       0.087100
     51 H14         -0.2760     0.0150    -4.5140 hn         1 0L0       0.459800
     52 H15          6.0290     0.5840     0.8200 hc         1 0L0       0.049200
     53 H16          6.0340     0.4280    -0.9430 hc         1 0L0       0.049200
     54 H17          7.0450    -4.0640    -1.7980 ha         1 0L0       0.124000
     55 H18          7.4600    -5.0300     0.4310 ha         1 0L0       0.122000
     56 H19          6.2140    -1.3720     2.2490 ha         1 0L0       0.133000
     57 H20          4.0360     0.0670    -2.1420 ha         1 0L0       0.140000
     58 H21          1.5510    -0.0860     2.1390 ha         1 0L0       0.147000
     59 H22          1.8670    -0.2130    -3.4080 ha         1 0L0       0.151000
     60 H23         -1.1390     0.8180     1.3480 ho         1 0L0       0.403000
     61 H24         -3.5930     2.7430    -4.7260 ho         1 0L0       0.401000
@<TRIPOS>BOND
     1    35    33 1   
     2    17    24 1   
     3    17    18 1   
     4     8    22 1   
     5    24    23 ar  
     6    24    25 ar  
     7    22    23 1   
     8    21    18 ar  
     9    21     7 ar  
    10    36    33 1   
    11    23    26 ar  
    12    25    27 ar  
    13    18     5 ar  
    14    33    34 1   
    15    33    37 1   
    16    27    28 1   
    17    27     9 ar  
    18    26     9 ar  
    19    28    29 2   
    20     7    20 ar  
    21     9     1 1   
    22    34     6 1   
    23     1    30 1   
    24     1    31 1   
    25    29    30 1   
    26    29    16 1   
    27     2    16 1   
    28     2    10 1   
    29     5    19 ar  
    30    30    15 2   
    31    20    19 ar  
    32     6     4 1   
    33    10     4 ar  
    34    10    11 ar  
    35    32    11 1   
    36     4    14 ar  
    37    11    12 ar  
    38    14    13 ar  
    39    12    13 ar  
    40    12     3 1   
    41     2    38 1   
    42     2    39 1   
    43     3    40 1   
    44     3    41 1   
    45     3    42 1   
    46     5    43 1   
    47     6    44 1   
    48     6    45 1   
    49     7    46 1   
    50     8    47 1   
    51     8    48 1   
    52     8    49 1   
    53    14    50 1   
    54    16    51 1   
    55    17    52 1   
    56    17    53 1   
    57    19    54 1   
    58    20    55 1   
    59    21    56 1   
    60    25    57 1   
    61    26    58 1   
    62    28    59 1   
    63    31    60 1   
    64    32    61 1   
@<TRIPOS>SUBSTRUCTURE
     1 0L0         1 TEMP              0 ****  ****    0 ROOT
