@<TRIPOS>MOLECULE
0L1
   18    17     1     0     0
SMALL
bcc


@<TRIPOS>ATOM
      1 O1           0.0000     0.0000     0.0000 o          1 0L1      -0.925300
      2 C2           1.3410     0.0000     0.0000 c          1 0L1       0.982600
      3 O2           1.9460     0.0000     1.0470 o          1 0L1      -0.925300
      4 C3           2.0950    -0.0000    -1.3050 c3         1 0L1      -0.131400
      5 C4           3.5990     0.0000    -1.0250 c3         1 0L1      -0.025400
      6 C5           4.3640    -0.0000    -2.3510 c3         1 0L1      -0.025400
      7 C6           5.8690     0.0000    -2.0710 c3         1 0L1      -0.131400
      8 C7           6.6220    -0.0000    -3.3760 c          1 0L1       0.982600
      9 O4           6.0180    -0.0000    -4.4230 o          1 0L1      -0.925300
     10 O3           7.9640    -0.0000    -3.3760 o          1 0L1      -0.925300
     11 H2           1.8330     0.8850    -1.8730 hc         1 0L1       0.002200
     12 H3           1.8330    -0.8850    -1.8730 hc         1 0L1       0.002200
     13 H4           3.8610    -0.8850    -0.4570 hc         1 0L1       0.009700
     14 H5           3.8610     0.8850    -0.4570 hc         1 0L1       0.009700
     15 H6           4.1030     0.8850    -2.9190 hc         1 0L1       0.009700
     16 H7           4.1030    -0.8850    -2.9190 hc         1 0L1       0.009700
     17 H8           6.1310     0.8850    -1.5030 hc         1 0L1       0.002200
     18 H9           6.1310    -0.8850    -1.5030 hc         1 0L1       0.002200
@<TRIPOS>BOND
     1     1     2 1   
     2     2     3 1   
     3     2     4 1   
     4     4     5 1   
     5     4    11 1   
     6     4    12 1   
     7     5     6 1   
     8     5    13 1   
     9     5    14 1   
    10     6     7 1   
    11     6    15 1   
    12     6    16 1   
    13     7     8 1   
    14     7    17 1   
    15     7    18 1   
    16     8     9 1   
    17     8    10 1   
@<TRIPOS>SUBSTRUCTURE
     1 0L1         1 TEMP              0 ****  ****    0 ROOT
