@<TRIPOS>MOLECULE
0L1
   18    17     1     0     0
SMALL
bcc


@<TRIPOS>ATOM
      1 O1           0.7170     1.1680     0.7660 o          1 0L1      -0.873300
      2 C2           1.6980     0.5640     0.2370 c          1 0L1       0.902600
      3 O2           2.6420     0.0720     0.9290 o          1 0L1      -0.873300
      4 C3           1.7820     0.4580    -1.2900 c3         1 0L1      -0.179400
      5 C4           0.6070    -0.2780    -1.8900 c3         1 0L1      -0.064400
      6 C5           0.6620    -0.3070    -3.4060 c3         1 0L1      -0.064400
      7 C6          -0.5130    -1.0440    -4.0070 c3         1 0L1      -0.179400
      8 C7          -0.4290    -1.1490    -5.5340 c          1 0L1       0.902600
      9 O4           0.5480    -1.7620    -6.0620 o          1 0L1      -0.873300
     10 O3          -1.3680    -0.6480    -6.2260 o          1 0L1      -0.873300
     11 H2           1.8230     1.4980    -1.7050 hc         1 0L1       0.015200
     12 H3           2.7360    -0.0580    -1.5680 hc         1 0L1       0.015200
     13 H4           0.5890    -1.3290    -1.4990 hc         1 0L1       0.028700
     14 H5          -0.3420     0.2150    -1.5520 hc         1 0L1       0.028700
     15 H6           1.6110    -0.8010    -3.7440 hc         1 0L1       0.028700
     16 H7           0.6810     0.7430    -3.7980 hc         1 0L1       0.028700
     17 H8          -1.4670    -0.5260    -3.7290 hc         1 0L1       0.015200
     18 H9          -0.5540    -2.0830    -3.5910 hc         1 0L1       0.015200
@<TRIPOS>BOND
     1     1     2 1   
     2     2     3 1   
     3     2     4 1   
     4     4     5 1   
     5     4    11 1   
     6     4    12 1   
     7     5     6 1   
     8     5    13 1   
     9     5    14 1   
    10     6     7 1   
    11     6    15 1   
    12     6    16 1   
    13     7     8 1   
    14     7    17 1   
    15     7    18 1   
    16     8     9 1   
    17     8    10 1   
@<TRIPOS>SUBSTRUCTURE
     1 0L1         1 TEMP              0 ****  ****    0 ROOT
