@<TRIPOS>MOLECULE
molecule
   86    88     1     0     0
SMALL
bcc


@<TRIPOS>ATOM
      1 O1G          0.0000     0.0000     0.0000 o          1 0L3      -0.790167
      2 PG           1.4790     0.0000     0.0000 p5         1 0L3       1.329900
      3 O3G          2.0160     0.0000     1.5180 o          1 0L3      -0.790167
      4 O2G          2.0160    -1.3140    -0.7600 o          1 0L3      -0.790167
      5 O3B          2.0160     1.3150    -0.7590 os         1 0L3      -0.732800
      6 PB           1.5520     2.1120    -2.0790 p5         1 0L3       1.518800
      7 O1B          1.9950     1.2860    -3.3880 o          1 0L3      -0.861500
      8 O2B          0.0810     2.2680    -2.0690 o          1 0L3      -0.861500
      9 O3A          2.2460     3.5640    -2.1000 os         1 0L3      -0.723800
     10 PA           1.9230     4.9480    -2.8580 p5         1 0L3       1.438800
     11 O2A          1.4900     4.6620    -4.2440 o          1 0L3      -0.850500
     12 O1A          0.7470     5.7240    -2.0780 o          1 0L3      -0.850500
     13 O5'          3.2450     5.8660    -2.8870 os         1 0L3      -0.566200
     14 C5'          3.3100     7.1140    -3.5800 c3         1 0L3       0.266400
     15 C4'          4.7030     7.7210    -3.4050 c3         1 0L3       0.098100
     16 C3'          4.7600     9.1290    -4.0390 c3         1 0L3       0.091100
     17 O3'          4.5900    10.1360    -3.0400 oh         1 0L3      -0.602800
     18 C2'          6.1750     9.2080    -4.6530 c3         1 0L3      -0.163400
     19 O4'          5.6840     6.9500    -4.1310 os         1 0L3      -0.358600
     20 C1'          6.8070     7.8380    -4.3170 c3         1 0L3       0.287800
     21 N9           7.6450     7.3780    -5.4260 na         1 0L3      -0.146100
     22 C4           8.9550     7.7310    -5.6160 ca         1 0L3       0.519800
     23 N3           9.8100     8.5100    -4.9550 nb         1 0L3      -0.802000
     24 C2          11.0430     8.6690    -5.3840 ca         1 0L3       0.686900
     25 N1          11.5010     8.0790    -6.4730 nb         1 0L3      -0.855000
     26 C6          10.7220     7.2830    -7.1990 ca         1 0L3       0.713200
     27 N6          11.2050     6.6670    -8.3400 nv         1 0L3      -1.003500
     28 C5           9.4000     7.0840    -6.7820 ca         1 0L3      -0.375400
     29 C8           7.2340     6.5280    -6.4140 cc         1 0L3      -0.012100
     30 C7           8.2560     6.3090    -7.2820 cd         1 0L3      -0.054900
     31 C31          8.2280     5.4800    -8.4490 ch         1 0L3      -0.077300
     32 C32          8.1850     4.8060    -9.4100 c1         1 0L3      -0.227100
     33 C33          8.0060     3.6170   -10.6100 c3         1 0L3       0.093700
     34 C34          7.2080     4.2070   -11.6260 c3         1 0L3      -0.142400
     35 C35          6.8210     3.3630   -12.8800 c3         1 0L3       0.020000
     36 N36          5.7730     3.6640   -13.8950 ns         1 0L3      -0.521900
     37 C37          5.5700     2.9330   -14.9560 c          1 0L3       0.654100
     38 O38          6.1390     1.9410   -15.4510 o          1 0L3      -0.647100
     39 C39          4.5360     3.3310   -16.0920 c3         1 0L3      -0.153400
     40 C40          4.8020     2.3640   -17.2680 c3         1 0L3       0.015600
     41 C41          3.6220     2.7280   -17.9460 c3         1 0L3      -0.110400
     42 C42          3.3500     1.9080   -19.3490 c3         1 0L3      -0.141400
     43 C43          2.2210     2.3590   -20.3750 c3         1 0L3      -0.054400
     44 C44          2.4630     1.3870   -21.5460 c3         1 0L3      -0.054400
     45 C45          1.2470     1.6410   -22.3750 c3         1 0L3      -0.169400
     46 C46          0.9620     0.7560   -23.8140 c3         1 0L3      -0.068400
     47 C47          0.1440     1.2980   -24.5510 c3         1 0L3       0.191400
     48 O48         -0.2040     0.3710   -25.9110 oh         1 0L3      -0.828800
     49 H5           3.4180     7.0010    -4.6520 h1         1 0L3       0.019200
     50 H6           2.5590     7.8670    -3.3750 h1         1 0L3       0.019200
     51 H7           4.9690     7.7730    -2.3560 h1         1 0L3       0.073700
     52 H8           4.0080     9.2240    -4.8140 h1         1 0L3       0.046700
     53 H9           3.8430    10.6620    -3.2770 ho         1 0L3       0.391000
     54 H10          6.0240     9.4620    -5.6950 hc         1 0L3       0.045200
     55 H11          6.4520    10.2410    -4.4810 hc         1 0L3       0.045200
     56 H12          7.3850     7.9070    -3.4030 h2         1 0L3       0.084700
     57 H13         11.6290     9.5260    -5.0740 h5         1 0L3       0.032100
     58 H14         12.0630     7.0090    -8.7260 hn         1 0L3       0.433300
     59 H15         10.5820     6.0720    -8.8500 hn         1 0L3       0.433300
     60 H16          6.2800     6.6280    -6.9170 h4         1 0L3       0.189000
     61 H17          8.9550     3.8470   -11.0790 hc         1 0L3       0.068200
     62 H18          7.7580     2.6020   -10.3220 hc         1 0L3       0.068200
     63 H19          6.2590     4.0270   -11.1350 hc         1 0L3       0.049700
     64 H20          6.9270     5.2290   -11.8490 hc         1 0L3       0.049700
     65 H21          7.8460     3.4090   -13.2280 h1         1 0L3       0.046200
     66 H22          6.6780     2.3720   -12.4670 h1         1 0L3       0.046200
     67 H23          5.4010     4.4870   -13.4640 hn         1 0L3       0.344500
     68 H24          3.5780     3.4580   -15.6030 hc         1 0L3       0.041700
     69 H25          4.7730     4.3820   -16.2000 hc         1 0L3       0.041700
     70 H26          5.7930     2.4250   -17.7000 hc         1 0L3       0.079200
     71 H27          4.4590     1.3910   -16.9370 hc         1 0L3       0.079200
     72 H28          2.6050     2.6630   -17.5770 hc         1 0L3       0.034200
     73 H29          3.5330     3.6700   -18.4740 hc         1 0L3       0.034200
     74 H30          4.2640     2.0250   -19.9190 hc         1 0L3       0.023200
     75 H31          3.4800     0.8780   -19.0400 hc         1 0L3       0.023200
     76 H32          1.3760     2.3880   -19.6980 hc         1 0L3       0.043700
     77 H33          2.2790     3.3670   -20.7650 hc         1 0L3       0.043700
     78 H34          3.3800     1.5130   -22.1070 hc         1 0L3       0.057200
     79 H35          2.1710     0.3600   -21.3590 hc         1 0L3       0.057200
     80 H36          0.2430     1.7280   -21.9790 hc         1 0L3       0.010200
     81 H37          1.3620     2.6840   -22.6430 hc         1 0L3       0.010200
     82 H38          1.9140     1.0360   -24.2480 hc         1 0L3       0.037700
     83 H39          1.0940    -0.2340   -23.3930 hc         1 0L3       0.037700
     84 H40         -0.8180     1.4020   -24.0640 h1         1 0L3      -0.009800
     85 H41          0.0880     2.3290   -24.8780 h1         1 0L3      -0.009800
     86 H42         -0.8570     0.4580   -26.5850 ho         1 0L3       0.344000
@<TRIPOS>BOND
     1    48    47 1
     2    47    46 1
     3    46    45 1
     4    45    44 1
     5    44    43 1
     6     1     2 1
     7    43    42 1
     8     3     2 1
     9    42    41 1
    10     2     4 1
    11     2     5 1
    12     8     6 1
    13    11    10 1
    14     5     6 1
    15    41    40 1
    16     6     7 1
    17     6     9 1
    18    40    39 1
    19    10     9 1
    20    10    13 1
    21    10    12 1
    22    14    13 1
    23    14    15 1
    24    17    16 1
    25    15    16 1
    26    15    19 1
    27    39    37 1
    28    16    18 1
    29    19    20 1
    30    37    36 1
    31    37    38 2
    32    36    35 1
    33    18    20 1
    34    20    21 1
    35    35    34 1
    36    29    21 1
    37    29    30 2
    38    21    22 1
    39    34    33 1
    40    30    31 1
    41    30    28 1
    42    31    32 3
    43    22    23 ar
    44    22    28 ar
    45    32    33 1
    46    23    24 ar
    47    28    26 ar
    48    24    25 ar
    49    26    25 ar
    50    26    27 1
    51    14    49 1
    52    14    50 1
    53    15    51 1
    54    16    52 1
    55    17    53 1
    56    18    54 1
    57    18    55 1
    58    20    56 1
    59    24    57 1
    60    27    58 1
    61    27    59 1
    62    29    60 1
    63    33    61 1
    64    33    62 1
    65    34    63 1
    66    34    64 1
    67    35    65 1
    68    35    66 1
    69    36    67 1
    70    39    68 1
    71    39    69 1
    72    40    70 1
    73    40    71 1
    74    41    72 1
    75    41    73 1
    76    42    74 1
    77    42    75 1
    78    43    76 1
    79    43    77 1
    80    44    78 1
    81    44    79 1
    82    45    80 1
    83    45    81 1
    84    46    82 1
    85    46    83 1
    86    47    84 1
    87    47    85 1
    88    48    86 1
@<TRIPOS>SUBSTRUCTURE
     1 0L3         1 TEMP              0 ****  ****    0 ROOT
