@<TRIPOS>MOLECULE
molecule
   57    59     1     0     0
SMALL
bcc


@<TRIPOS>ATOM
      1 O2A          0.0000     0.0000     0.0000 o          1 0L4      -0.828500
      2 PA           1.4800     0.0000     0.0000 p5         1 0L4       1.435800
      3 O1A          2.0180     0.0000     1.5170 o          1 0L4      -0.828500
      4 O3A          2.0170    -1.3140    -0.7600 os         1 0L4      -0.725800
      5 PB           1.5530    -2.8550    -0.7910 p5         1 0L4       1.546800
      6 O3B          2.7710    -3.7710    -1.3110 os         1 0L4      -0.720800
      7 PG           3.0710    -5.3540    -1.2840 p5         1 0L4       1.307900
      8 O2G          4.2710    -5.6890    -2.3050 o          1 0L4      -0.672500
      9 O3T          3.4940    -5.7950     0.2050 o          1 0L4      -0.672500
     10 O1G          1.8560    -6.0930    -1.6920 o          1 0L4      -0.672500
     11 O1B          0.2970    -3.0180    -1.7850 o          1 0L4      -0.775500
     12 O2B          1.1630    -3.2810     0.5720 o          1 0L4      -0.775500
     13 O5'          2.0160     1.3150    -0.7590 os         1 0L4      -0.559200
     14 C5'          1.6270     2.6400    -0.3900 c3         1 0L4       0.038400
     15 C4'          2.3170     3.6480    -1.3100 c3         1 0L4       0.340100
     16 O4'          1.7740     3.5640    -2.6460 os         1 0L4      -0.501600
     17 C1'          2.1000     4.8240    -3.2710 c3         1 0L4       0.256800
     18 C2'          1.8650     5.8820    -2.1710 c3         1 0L4      -0.181400
     19 C3'          2.0110     5.0920    -0.8510 c3         1 0L4       0.143100
     20 O3'          3.0920     5.6110    -0.0740 oh         1 0L4      -0.608800
     21 N9           1.2170     5.0700    -4.4130 na         1 0L4      -0.154100
     22 C8          -0.0250     4.5220    -4.5730 cc         1 0L4      -0.005100
     23 C7          -0.5690     4.9580    -5.7390 cd         1 0L4      -0.008900
     24 C5           0.4220     5.8530    -6.3520 ca         1 0L4      -0.353400
     25 C6           0.4800     6.6120    -7.5290 ca         1 0L4       0.795200
     26 N6          -0.5760     6.6150    -8.4230 nv         1 0L4      -1.042500
     27 N1           1.5750     7.3280    -7.7650 nb         1 0L4      -0.875000
     28 C2           2.5850     7.3280    -6.9130 ca         1 0L4       0.697900
     29 N3           2.5720     6.6310    -5.7970 nb         1 0L4      -0.768000
     30 C4           1.5170     5.8870    -5.4710 ca         1 0L4       0.500800
     31 C42         -1.8550     4.6140    -6.2650 ch         1 0L4      -0.129300
     32 C43         -2.9110     4.3160    -6.6840 c1         1 0L4      -0.097100
     33 C44         -4.1540     4.7560    -7.3710 c3         1 0L4      -0.057300
     34 C45         -4.7970     3.3070    -7.0030 c3         1 0L4      -0.176400
     35 C46         -5.8190     2.6760    -8.2340 c3         1 0L4      -0.049200
     36 N47         -7.1850     2.9020    -8.4270 nz         1 0L4      -0.763600
     37 H5           2.0370     3.2070    -1.2170 h1         1 0L4       0.057200
     38 H6           0.5570     2.7990    -0.3370 h1         1 0L4       0.057200
     39 H7           3.3870     3.4800    -1.3290 h1         1 0L4       0.092700
     40 H8           3.1380     4.8300    -3.5810 h2         1 0L4       0.081700
     41 H9           2.6950     6.5690    -2.0600 hc         1 0L4       0.054700
     42 H10          1.1170     6.6400    -2.3700 hc         1 0L4       0.054700
     43 H11          1.0850     5.1210    -0.2900 h1         1 0L4       0.056700
     44 H12          2.8360     6.1810     0.6320 ho         1 0L4       0.404000
     45 H13         -0.5990     4.3580    -3.6700 h4         1 0L4       0.194000
     46 H14         -1.2510     6.1950    -9.0310 hn         1 0L4       0.421300
     47 H15         -0.5690     7.5760    -8.7010 hn         1 0L4       0.421300
     48 H16          3.2520     8.0220    -7.4100 h5         1 0L4       0.057100
     49 H17         -4.1920     4.4470    -8.4090 hc         1 0L4       0.073700
     50 H18         -4.8410     5.5380    -7.0710 hc         1 0L4       0.073700
     51 H19         -5.6830     3.3520    -6.3810 hc         1 0L4       0.034200
     52 H20         -4.1100     2.6740    -6.4550 hc         1 0L4       0.034200
     53 H21         -5.7230     1.5970    -8.2250 hx         1 0L4       0.030700
     54 H22         -5.0460     3.0950    -8.8660 hx         1 0L4       0.030700
     55 H23         -7.0820     3.8360    -8.7710 hn         1 0L4       0.235800
     56 H24         -7.9210     2.2400    -8.5710 hn         1 0L4       0.235800
     57 H473        -7.3770     3.2050    -7.4920 hn         1 0L4       0.235800
@<TRIPOS>BOND
     1    10     7 1   
     2     8     7 1   
     3     7     9 1   
     4     7     6 1   
     5    12     5 1   
     6     1     2 1   
     7     6     5 1   
     8     5    11 1   
     9     5     4 1   
    10    14    13 1   
    11    14    15 1   
    12     2     4 1   
    13     2    13 1   
    14     2     3 1   
    15    20    19 1   
    16    15    19 1   
    17    15    16 1   
    18    19    18 1   
    19    16    17 1   
    20    36    35 1   
    21    18    17 1   
    22    17    21 1   
    23    35    34 1   
    24    22    21 1   
    25    22    23 2   
    26    21    30 1   
    27    34    33 1   
    28    23    31 1   
    29    23    24 1   
    30    30    29 ar  
    31    30    24 ar  
    32    31    32 3   
    33    32    33 1   
    34    29    28 ar  
    35    24    25 ar  
    36    28    27 ar  
    37    25    27 ar  
    38    25    26 1   
    39    14    37 1   
    40    14    38 1   
    41    15    39 1   
    42    17    40 1   
    43    18    41 1   
    44    18    42 1   
    45    19    43 1   
    46    20    44 1   
    47    22    45 1   
    48    26    46 1   
    49    26    47 1   
    50    28    48 1   
    51    33    49 1   
    52    33    50 1   
    53    34    51 1   
    54    34    52 1   
    55    35    53 1   
    56    35    54 1   
    57    36    55 1   
    58    36    56 1   
    59    57    36 1   
@<TRIPOS>SUBSTRUCTURE
     1 0L4         1 TEMP              0 ****  ****    0 ROOT
