@<TRIPOS>MOLECULE
0L4
   57    59     1     0     0
SMALL
bcc


@<TRIPOS>ATOM
      1 O2A          1.4070     0.3870     0.8990 o          1 0L4      -0.886000
      2 PA           2.7530    -0.2100     0.7740 p5         1 0L4       1.601800
      3 O1A          3.7230    -0.2070     1.8910 o          1 0L4      -0.886000
      4 O3A          2.7760    -1.6170     0.0050 os         1 0L4      -0.828800
      5 PB           3.1400    -3.0340    -0.7720 p5         1 0L4       1.756800
      6 O3B          1.8700    -4.0120    -0.5190 os         1 0L4      -0.839800
      7 PG           0.6770    -5.1370    -0.4530 p5         1 0L4       1.596800
      8 O2G         -0.6500    -4.5900    -0.8020 o          1 0L4      -0.892000
      9 O3T          0.7360    -5.3220     1.1780 oh         1 0L4      -0.810400
     10 O1G          1.1520    -6.4050    -1.0490 o          1 0L4      -0.892000
     11 O1B          4.3090    -3.5820    -0.0540 o          1 0L4      -0.926000
     12 O2B          3.2000    -2.6680    -2.2090 o          1 0L4      -0.926000
     13 O5'          3.5040     0.7060    -0.4340 os         1 0L4      -0.600200
     14 C5'          2.6750     1.3970    -1.2990 c3         1 0L4       0.195400
     15 C4'          3.1040     1.3080    -2.7710 c3         1 0L4       0.088100
     16 O4'          4.0470     2.3660    -3.0760 os         1 0L4      -0.437600
     17 C1'          5.2690     1.8410    -3.5860 c3         1 0L4       0.251800
     18 C2'          5.0330     0.3550    -3.9280 c3         1 0L4      -0.132400
     19 C3'          3.7220    -0.0280    -3.2210 c3         1 0L4       0.136100
     20 O3'          2.8660    -0.6540    -4.1520 oh         1 0L4      -0.657800
     21 N9           6.3480     2.0450    -2.6190 na         1 0L4      -0.160100
     22 C8           6.3470     1.5450    -1.3200 cc         1 0L4      -0.004100
     23 C7           7.5760     1.8190    -0.6860 cd         1 0L4      -0.029900
     24 C5           8.3810     2.5370    -1.6340 ca         1 0L4      -0.320400
     25 C6           9.6950     3.0800    -1.6530 ca         1 0L4       0.667200
     26 N6          10.4620     3.0600    -0.4770 nv         1 0L4      -0.925500
     27 N1          10.1790     3.6680    -2.7910 nb         1 0L4      -0.806000
     28 C2           9.3240     3.7280    -3.8550 ca         1 0L4       0.621900
     29 N3           8.0610     3.2780    -3.9840 nb         1 0L4      -0.723000
     30 C4           7.5820     2.6650    -2.8540 ca         1 0L4       0.436800
     31 C42          7.8660     1.3800     0.5980 ch         1 0L4      -0.149300
     32 C43          7.9490     0.9000     1.6950 c1         1 0L4      -0.120100
     33 C44          7.9420     0.2800     2.9850 c3         1 0L4       0.016700
     34 C45          6.6950    -0.5740     3.1830 c3         1 0L4      -0.109400
     35 C46          6.7800    -1.8830     2.3970 c3         1 0L4       0.193800
     36 N47          5.6330    -2.7410     2.5770 n8         1 0L4      -0.948800
     37 H5           2.6830     2.4950    -1.0290 h1         1 0L4       0.032200
     38 H6           1.6200     1.0050    -1.2200 h1         1 0L4       0.032200
     39 H7           2.2080     1.5490    -3.4110 h1         1 0L4       0.047700
     40 H8           5.5200     2.4630    -4.4940 h2         1 0L4       0.069700
     41 H9           4.9210     0.2510    -5.0350 hc         1 0L4       0.060200
     42 H10          5.8630    -0.3090    -3.5920 hc         1 0L4       0.060200
     43 H11          3.9090    -0.7150    -2.3410 h1         1 0L4       0.155700
     44 H12          2.6500    -1.5300    -3.7750 ho         1 0L4       0.486000
     45 H13          5.4540     1.0250    -0.9170 h4         1 0L4       0.275000
     46 H14         11.4470     3.0370    -0.6100 hn         1 0L4       0.398800
     47 H15         10.1230     2.3990     0.1910 hn         1 0L4       0.398800
     48 H16          9.7460     4.2230    -4.7530 h5         1 0L4       0.016100
     49 H17          8.8640    -0.3530     3.1100 hc         1 0L4       0.020700
     50 H18          7.9740     1.0770     3.7810 hc         1 0L4       0.020700
     51 H19          5.7690    -0.0190     2.8480 hc         1 0L4       0.081200
     52 H20          6.5930    -0.7900     4.2780 hc         1 0L4       0.081200
     53 H21          6.9650    -1.6170     1.3150 h1         1 0L4      -0.005800
     54 H22          7.6900    -2.4580     2.7450 h1         1 0L4      -0.005800
     55 H23          1.5150    -4.9520     1.5730 ho         1 0L4       0.426000
     56 H24          4.8040    -2.1790     2.6780 hn         1 0L4       0.397800
     57 H473         5.5020    -3.3150     1.7560 hn         1 0L4       0.397800
@<TRIPOS>BOND
     1     1     2 1   
     2     2     3 1   
     3     2     4 1   
     4     2    13 1   
     5     4     5 1   
     6     5     6 1   
     7     5    11 1   
     8     5    12 1   
     9     6     7 1   
    10     7     8 1   
    11     7     9 1   
    12     7    10 1   
    13     9    55 1   
    14    13    14 1   
    15    14    15 1   
    16    14    37 1   
    17    14    38 1   
    18    15    16 1   
    19    15    19 1   
    20    15    39 1   
    21    16    17 1   
    22    17    18 1   
    23    17    21 1   
    24    17    40 1   
    25    18    19 1   
    26    18    41 1   
    27    18    42 1   
    28    19    20 1   
    29    19    43 1   
    30    20    44 1   
    31    21    22 1   
    32    21    30 1   
    33    22    23 2   
    34    22    45 1   
    35    23    24 1   
    36    23    31 1   
    37    24    25 ar  
    38    24    30 ar  
    39    25    26 1   
    40    25    27 ar  
    41    26    46 1   
    42    26    47 1   
    43    27    28 ar  
    44    28    29 ar  
    45    28    48 1   
    46    29    30 ar  
    47    31    32 3   
    48    32    33 1   
    49    33    34 1   
    50    33    49 1   
    51    33    50 1   
    52    34    35 1   
    53    34    51 1   
    54    34    52 1   
    55    35    36 1   
    56    35    53 1   
    57    35    54 1   
    58    36    56 1   
    59    36    57 1   
@<TRIPOS>SUBSTRUCTURE
     1 0L4         1 TEMP              0 ****  ****    0 ROOT
