@<TRIPOS>MOLECULE
molecule
   82    83     1     0     0
SMALL
bcc


@<TRIPOS>ATOM
      1 O36          0.0000     0.0000     0.0000 o          1 0L5      -0.621100
      2 C35          1.2130     0.0000     0.0000 c          1 0L5       0.651100
      3 C37          1.9670     0.0000     1.3040 c3         1 0L5      -0.151400
      4 C38          0.9740    -0.0010     2.4680 c3         1 0L5      -0.078400
      5 C39          1.7400    -0.0030     3.7920 c3         1 0L5      -0.218400
      6 C40          0.7450    -0.0030     4.9560 c3         1 0L5      -0.076400
      7 C41          1.5120    -0.0040     6.2810 c3         1 0L5      -0.496400
      8 C42          0.5180    -0.0050     7.4450 c3         1 0L5      -0.189400
      9 C43          1.2850    -0.0060     8.7690 c3         1 0L5      -0.541400
     10 C44          0.2900    -0.0070     9.9320 c3         1 0L5      -0.199400
     11 C45          1.0570    -0.0080    11.2560 c3         1 0L5      -0.665600
     12 O46          0.1280    -0.0090    12.3440 oh         1 0L5      -0.392800
     13 N34          1.8860    -0.0040    -1.1680 ns         1 0L5      -0.578900
     14 C33          1.1530    -0.0090    -2.4360 c3         1 0L5       0.068000
     15 C32          2.1470    -0.0140    -3.6000 c3         1 0L5      -0.123400
     16 C31          1.3810    -0.0190    -4.9240 c3         1 0L5       0.007700
     17 C30          2.3360    -0.0240    -6.0430 c1         1 0L5      -0.249100
     18 C29          3.1120    -0.0170    -6.9250 cg         1 0L5      -0.078300
     19 C5           3.8100    -0.0040    -8.5820 cd         1 0L5      -0.426900
     20 C6           4.4040     1.2240    -9.2360 cc         1 0L5       0.170600
     21 N1           4.7560     1.1310   -10.1340 n          1 0L5      -0.145000
     22 C2           4.7830    -0.1290   -10.9830 c          1 0L5       0.692500
     23 O2           5.2190    -0.0550   -12.2260 o          1 0L5      -0.497500
     24 N3           4.2100    -1.4590   -10.4450 ns         1 0L5      -0.552500
     25 C4           3.7350    -1.3120    -9.2200 c          1 0L5       0.750700
     26 O4           3.0470    -2.2590    -8.9670 o          1 0L5      -0.670500
     27 C1'          5.4110     2.4150   -10.8970 c3         1 0L5       0.345500
     28 O4'          4.8670     2.6730   -12.2240 os         1 0L5      -0.377600
     29 C4'          5.5720     3.2220   -13.1260 c3         1 0L5       0.078100
     30 C3'          6.9610     3.3400   -12.0420 c3         1 0L5       0.013100
     31 O3'          7.4110     4.4140   -11.6280 oh         1 0L5      -0.539800
     32 C2'          6.7000     2.1180   -11.0630 c3         1 0L5      -0.209400
     33 C5'          5.9330     2.8320   -14.6410 c3         1 0L5       0.573400
     34 O5'          5.0560     2.7600   -15.0930 os         1 0L5      -0.390200
     35 PA           4.7080     3.0170   -16.8600 p5         1 0L5       1.159800
     36 O1A          4.0800     4.1550   -17.2050 o          1 0L5      -0.629500
     37 O2A          6.4230     2.6790   -17.4120 o          1 0L5      -0.629500
     38 O3A          3.8360     1.5560   -17.4700 os         1 0L5      -0.598800
     39 PB           3.6130     1.6840   -18.8630 p5         1 0L5       1.290800
     40 O1B          2.6910     2.9910   -19.5550 o          1 0L5      -0.791000
     41 O2B          4.5590     1.4280   -19.9270 o          1 0L5      -0.791000
     42 O3B          2.4220     0.6570   -19.3340 os         1 0L5      -0.624800
     43 PG           2.5780    -0.9130   -18.8390 p5         1 0L5       1.262900
     44 O1G          1.5320    -1.9260   -19.4290 o          1 0L5      -0.722833
     45 O3G          3.9370    -1.2870   -18.7420 o          1 0L5      -0.722833
     46 O2G          2.2200    -0.9620   -17.1410 o          1 0L5      -0.722833
     47 H1           2.6350     0.8520     1.3350 hc         1 0L5       0.053200
     48 H2           2.5430    -0.9130     1.3880 hc         1 0L5       0.053200
     49 H3           0.1480    -0.6630     2.2370 hc         1 0L5       0.054700
     50 H4           0.5990     1.0030     2.6240 hc         1 0L5       0.054700
     51 H5           2.8040     0.0340     3.5940 hc         1 0L5       0.087200
     52 H6           1.5060    -0.9050     4.3430 hc         1 0L5       0.087200
     53 H7           0.5500     1.0160     5.2650 hc         1 0L5       0.035700
     54 H8          -0.1810    -0.4680     4.6400 hc         1 0L5       0.035700
     55 H9           2.3670    -0.6640     6.2030 hc         1 0L5       0.144700
     56 H10          0.8600    -0.3500     7.0740 hc         1 0L5       0.144700
     57 H11          0.5020     0.9750     7.9060 hc         1 0L5       0.125200
     58 H12         -0.4710    -0.2460     7.0750 hc         1 0L5       0.125200
     59 H13          2.2570    -0.4610     8.6230 hc         1 0L5       0.178700
     60 H14          0.7290    -0.5720     9.5070 hc         1 0L5       0.178700
     61 H15         -0.7070    -0.1980     9.5540 hc         1 0L5       0.130700
     62 H16          0.3110     0.9560    10.4270 hc         1 0L5       0.130700
     63 H17          0.4040    -0.3490    12.0510 h1         1 0L5       0.113700
     64 H18          1.9090    -0.6720    11.1800 h1         1 0L5       0.113700
     65 H19          0.5770    -0.2360    13.1410 ho         1 0L5       0.245000
     66 H20          2.8520    -0.2640    -1.1870 hn         1 0L5       0.304500
     67 H21          0.2340    -0.5720    -2.3200 h1         1 0L5       0.058200
     68 H22          0.9180     1.0100    -2.7210 h1         1 0L5       0.058200
     69 H23          2.3740    -1.0360    -3.8770 hc         1 0L5       0.058200
     70 H24          3.0580     0.4890    -3.2980 hc         1 0L5       0.058200
     71 H25          0.4040    -0.4630    -4.7740 hc         1 0L5       0.066200
     72 H26          1.2640     0.9980    -5.2780 hc         1 0L5       0.066200
     73 H27          4.3620     2.1920    -8.7510 h4         1 0L5       0.143000
     74 H28          4.2440    -2.3420   -10.9140 hn         1 0L5       0.373500
     75 H29          5.3170     3.3030   -10.2830 h2         1 0L5       0.081700
     76 H30          5.1730     4.2260   -13.2040 h1         1 0L5      -0.007300
     77 H31          7.7530     2.9450   -12.6650 h1         1 0L5       0.009700
     78 H32          8.2930     4.5260   -11.9410 ho         1 0L5       0.399000
     79 H33          7.2710     2.3470   -10.1710 hc         1 0L5       0.075700
     80 H34          6.8270     1.0860   -11.3670 hc         1 0L5       0.075700
     81 H35          6.4540     1.8820   -14.6730 h1         1 0L5      -0.135800
     82 H36          6.5330     3.6090   -15.0990 h1         1 0L5      -0.135800
@<TRIPOS>BOND
     1    44    43 1
     2    46    43 1
     3    43    45 1
     4    43    42 1
     5    40    39 1
     6    37    35 1
     7    42    39 1
     8    39    41 1
     9    39    38 1
    10    35    38 1
    11    35    34 1
    12    35    36 1
    13    33    34 1
    14    33    29 1
    15    31    30 1
    16    29    30 1
    17    29    28 1
    18    30    32 1
    19    28    27 1
    20    32    27 1
    21    27    21 1
    22    20    21 1
    23    20    19 2
    24    16    17 1
    25    16    15 1
    26    21    22 1
    27    17    18 3
    28    18    19 1
    29    19    25 1
    30    15    14 1
    31    22    23 2
    32    22    24 1
    33    14    13 1
    34    25    24 1
    35    25    26 2
    36     1     2 2
    37    13     2 1
    38     2     3 1
    39     4     3 1
    40     4     5 1
    41    12    11 1
    42     5     6 1
    43    11    10 1
    44    10     9 1
    45     9     8 1
    46     8     7 1
    47     6     7 1
    48     3    47 1
    49     3    48 1
    50     4    49 1
    51     4    50 1
    52     5    51 1
    53     5    52 1
    54     6    53 1
    55     6    54 1
    56     7    55 1
    57     7    56 1
    58     8    57 1
    59     8    58 1
    60     9    59 1
    61     9    60 1
    62    10    61 1
    63    10    62 1
    64    11    63 1
    65    11    64 1
    66    12    65 1
    67    13    66 1
    68    14    67 1
    69    14    68 1
    70    15    69 1
    71    15    70 1
    72    16    71 1
    73    16    72 1
    74    20    73 1
    75    24    74 1
    76    27    75 1
    77    29    76 1
    78    30    77 1
    79    31    78 1
    80    32    79 1
    81    32    80 1
    82    33    81 1
    83    33    82 1
@<TRIPOS>SUBSTRUCTURE
     1 0L5         1 TEMP              0 ****  ****    0 ROOT
