@<TRIPOS>MOLECULE
molecule
   57    58     1     0     0
SMALL
bcc


@<TRIPOS>ATOM
      1 O2           0.0000     0.0000     0.0000 o          1 0L6      -0.706500
      2 C2           1.2530     0.0000     0.0000 c          1 0L6       0.796500
      3 N3           1.9330     0.0000     1.1500 ns         1 0L6      -0.452100
      4 C4           3.2670    -0.0050     1.1590 c2         1 0L6       0.130600
      5 N4           3.9340    -0.0060     2.3410 nz         1 0L6      -1.009400
      6 C5           3.9720     0.0010    -0.0090 ce         1 0L6      -0.032900
      7 C29          5.2550    -0.0170     0.0800 cg         1 0L6      -0.221300
      8 C30          6.4240    -0.0180     0.1470 c1         1 0L6      -0.052100
      9 C31          7.8020     0.2120     0.4830 c3         1 0L6      -0.035300
     10 C32          7.8160    -0.2280     2.0210 c3         1 0L6      -0.055400
     11 C33          7.6370    -1.6140     1.9130 c3         1 0L6       0.106800
     12 N34          7.2450    -1.9980     3.3050 nz         1 0L6      -1.119600
     13 C6           3.2980    -0.0090    -1.2460 c3         1 0L6       0.104200
     14 N1           1.9520    -0.0040    -1.2280 n          1 0L6      -0.429800
     15 C1'          1.1720     0.0090    -2.4710 c3         1 0L6       0.297500
     16 O4'          1.8900    -0.5560    -3.5780 os         1 0L6      -0.450600
     17 C2'          0.9460     1.4790    -2.8070 c3         1 0L6      -0.148400
     18 C3'          2.0060     1.7480    -3.8650 c3         1 0L6       0.130100
     19 O3'          1.6540     2.8470    -4.7110 oh         1 0L6      -0.605800
     20 C4'          2.0670     0.4240    -4.6070 c3         1 0L6       0.093100
     21 C5'          3.3630     0.2200    -5.3910 c3         1 0L6       0.182400
     22 O5'          4.4770     0.1890    -4.5040 os         1 0L6      -0.596200
     23 PA           5.8460     0.9190    -4.9240 p5         1 0L6       1.605800
     24 O1A          6.9380     0.4140    -4.0080 o          1 0L6      -0.851500
     25 O2A          6.0830     0.8470    -6.4220 o          1 0L6      -0.851500
     26 O3A          5.4800     2.4180    -4.4360 os         1 0L6      -0.798800
     27 PB           5.0210     3.6260    -5.4040 p5         1 0L6       1.679800
     28 O1B          3.9640     4.3950    -4.6440 o          1 0L6      -0.553000
     29 O2B          4.6630     3.1100    -6.7840 o          1 0L6      -0.553000
     30 O3B          6.3360     4.5730    -5.4280 os         1 0L6      -0.717800
     31 PG           7.5470     4.4840    -6.5000 p5         1 0L6       1.361900
     32 O1G          7.2020     3.3380    -7.4260 o          1 0L6      -0.631833
     33 O2G          8.7650     4.2230    -5.6420 o          1 0L6      -0.631833
     34 O3G          7.5740     5.8520    -7.1380 o          1 0L6      -0.631833
     35 H1           1.7120    -0.5970     1.9220 hn         1 0L6       0.311500
     36 H2           3.3570     0.4020     3.0500 hn         1 0L6       0.326133
     37 H3           4.1590    -0.9470     2.5950 hn         1 0L6       0.326133
     38 H4           8.4570    -0.4170    -0.1080 hc         1 0L6       0.100700
     39 H5           8.0590     1.2590     0.3740 hc         1 0L6       0.100700
     40 H6           8.7690     0.0060     2.4820 hc         1 0L6       0.024200
     41 H7           6.9970     0.2290     2.5630 hc         1 0L6       0.024200
     42 H8           6.8430    -1.8460     1.2130 hx         1 0L6       0.076700
     43 H9           8.5610    -2.1010     1.6260 hx         1 0L6       0.076700
     44 H10          7.0980    -2.9870     3.3490 hn         1 0L6       0.278800
     45 H11          7.9750    -1.7400     3.9400 hn         1 0L6       0.278800
     46 H13          3.7440     0.7350    -1.8950 h1         1 0L6       0.106700
     47 H14          3.2030    -1.0330    -1.5860 h1         1 0L6       0.106700
     48 H15          0.2230    -0.4970    -2.3360 h2         1 0L6       0.072700
     49 H16          0.2190     1.9810    -2.1810 hc         1 0L6       0.100700
     50 H17          0.9530     1.7080    -3.8660 hc         1 0L6       0.100700
     51 H18          2.9580     1.9400    -3.3850 h1         1 0L6       0.130700
     52 H19          0.8370     2.6600    -5.1440 ho         1 0L6       0.380000
     53 H20          1.2280     0.3690    -5.2900 h1         1 0L6       0.040700
     54 H21          3.4130     0.9450    -6.1940 h1         1 0L6       0.038700
     55 H22          3.3720    -0.7790    -5.8120 h1         1 0L6       0.038700
     56 H43          3.3810    -0.4680     3.0350 hn         1 0L6       0.326133
     57 H343         6.2700    -1.8150     3.4400 hn         1 0L6       0.278800
@<TRIPOS>BOND
     1    34    31 1   
     2    33    31 1   
     3    31    32 1   
     4    31    30 1   
     5    28    27 1   
     6    25    23 1   
     7    30    27 1   
     8    27    29 1   
     9    27    26 1   
    10    23    26 1   
    11    23    22 1   
    12    23    24 1   
    13    21    22 1   
    14    21    20 1   
    15    19    18 1   
    16    20    18 1   
    17    20    16 1   
    18    18    17 1   
    19    16    15 1   
    20    17    15 1   
    21    15    14 1   
    22    13    14 1   
    23    13     6 1   
    24    14     2 1   
    25     9     8 1   
    26     9    10 1   
    27     8     7 3   
    28     7     6 1   
    29     6     4 2   
    30     2     1 2   
    31     2     3 1   
    32    11    10 1   
    33    11    12 1   
    34     4     3 1   
    35     4     5 1   
    36     3    35 1   
    37     5    36 1   
    38     5    37 1   
    39     9    38 1   
    40     9    39 1   
    41    10    40 1   
    42    10    41 1   
    43    11    42 1   
    44    11    43 1   
    45    12    44 1   
    46    12    45 1   
    47    13    46 1   
    48    13    47 1   
    49    15    48 1   
    50    17    49 1   
    51    17    50 1   
    52    18    51 1   
    53    19    52 1   
    54    20    53 1   
    55    21    54 1   
    56    21    55 1   
    57    56     5 1   
    58    57    12 1   
@<TRIPOS>SUBSTRUCTURE
     1 0L6         1 TEMP              0 ****  ****    0 ROOT
