@<TRIPOS>MOLECULE
molecule
   57    58     1     0     0
SMALL
bcc


@<TRIPOS>ATOM
      1 O2           0.0000     0.0000     0.0000 o          1 0L6      -0.641500
      2 C2           1.2160     0.0000     0.0000 c          1 0L6       0.807500
      3 N3           1.8630     0.0000     1.1730 ns         1 0L6      -0.425100
      4 C4           3.2390    -0.0010     1.2830 c2         1 0L6      -0.167400
      5 N4           3.8230    -0.0010     2.5350 nz         1 0L6      -0.762400
      6 C5           4.0240     0.0010     0.1770 ce         1 0L6      -0.108900
      7 C29          5.4520     0.0000     0.2850 cg         1 0L6      -0.173300
      8 C30          6.6240    -0.0020     0.3520 c1         1 0L6      -0.252100
      9 C31          8.1780    -0.0290     0.7040 c3         1 0L6       0.009700
     10 C32          8.2750     0.4490     2.3440 c3         1 0L6      -0.122400
     11 C33          9.8290     0.1810     2.7370 c3         1 0L6      -0.003200
     12 N34         10.1370     1.0150     3.8690 nz         1 0L6      -0.808600
     13 C6           3.3380     0.0020    -1.1740 c3         1 0L6       0.151200
     14 N1           1.8670    -0.0050    -1.1800 n          1 0L6      -0.463800
     15 C1'          1.1240    -0.0040    -2.4420 c3         1 0L6       0.330500
     16 O4'          0.1480     1.0600    -2.4510 os         1 0L6      -0.364600
     17 C2'          0.2990    -1.3020    -2.5810 c3         1 0L6      -0.158400
     18 C3'         -1.0100    -0.8440    -3.2620 c3         1 0L6       0.140100
     19 O3'         -1.1730    -1.4940    -4.5240 oh         1 0L6      -0.625800
     20 C4'         -0.8200     0.6790    -3.4540 c3         1 0L6       0.129100
     21 C5'         -2.1420     1.4150    -3.2250 c3         1 0L6       0.249400
     22 O5'         -1.9730     2.8020    -3.5200 os         1 0L6      -0.547200
     23 PA          -3.1630     3.8780    -3.3880 p5         1 0L6       1.427800
     24 O1A         -4.3150     3.5380    -4.4600 o          1 0L6      -0.825000
     25 O2A         -3.7280     3.8240    -2.0220 o          1 0L6      -0.825000
     26 O3A         -2.5850     5.3540    -3.6720 os         1 0L6      -0.719800
     27 PB          -3.0950     6.8410    -3.3210 p5         1 0L6       1.560800
     28 O1B         -2.7240     7.1890    -1.7930 o          1 0L6      -0.649000
     29 O2B         -4.5620     6.9160    -3.5010 o          1 0L6      -0.649000
     30 O3B         -2.3800     7.8990    -4.3010 os         1 0L6      -0.700800
     31 PG          -2.6580     9.4390    -4.6800 p5         1 0L6       1.255900
     32 O1G         -1.9410     9.7860    -6.0790 o          1 0L6      -0.514500
     33 O2G         -2.0680    10.3910    -3.5230 o          1 0L6      -0.514500
     34 O3G         -4.1160     9.6600    -4.8050 o          1 0L6      -0.514500
     35 H1           1.2550    -0.5740     1.7230 hn         1 0L6       0.298500
     36 H2           4.6770     0.5180     2.5880 hn         1 0L6       0.420800
     37 H3           3.7960    -0.9660     2.7990 hn         1 0L6       0.420800
     38 H4           8.8220     0.5990     0.1000 hc         1 0L6       0.031700
     39 H5           8.6700    -0.9770     0.5200 hc         1 0L6       0.031700
     40 H6           7.7370    -0.3990     2.7500 hc         1 0L6       0.079700
     41 H7           8.1740     1.5240     2.2520 hc         1 0L6       0.079700
     42 H8          10.3520     0.7260     1.9600 hx         1 0L6       0.020700
     43 H9          10.1640    -0.8150     2.4730 hx         1 0L6       0.020700
     44 H10          9.6890     0.3090     4.4180 hn         1 0L6       0.285133
     45 H11          9.4920     1.7770     3.9420 hn         1 0L6       0.285133
     46 H13          4.0790    -0.5910    -1.6960 h1         1 0L6       0.043700
     47 H14          3.7330     0.9430    -1.5380 h1         1 0L6       0.043700
     48 H15          1.8000     0.1020    -3.2830 h2         1 0L6       0.054700
     49 H16          0.2910    -1.7490    -1.5940 hc         1 0L6       0.046200
     50 H17          0.8600    -2.0150    -3.1740 hc         1 0L6       0.046200
     51 H18         -1.8580    -1.0390    -2.6170 h1         1 0L6       0.054700
     52 H19         -1.5780    -2.3450    -4.5110 ho         1 0L6       0.398000
     53 H20         -0.4330     0.8860    -4.4440 h1         1 0L6       0.060700
     54 H21         -2.2300     1.0160    -2.2220 h1         1 0L6       0.021700
     55 H22         -2.9230     0.7090    -3.4830 h1         1 0L6       0.021700
     56 H43          3.6740     0.9730     2.7080 hn         1 0L6       0.420800
     57 H343        11.1010     0.8390     4.0720 hn         1 0L6       0.285133
@<TRIPOS>BOND
     1    34    31 1   
     2    33    31 1   
     3    31    32 1   
     4    31    30 1   
     5    28    27 1   
     6    25    23 1   
     7    30    27 1   
     8    27    29 1   
     9    27    26 1   
    10    23    26 1   
    11    23    22 1   
    12    23    24 1   
    13    21    22 1   
    14    21    20 1   
    15    19    18 1   
    16    20    18 1   
    17    20    16 1   
    18    18    17 1   
    19    16    15 1   
    20    17    15 1   
    21    15    14 1   
    22    13    14 1   
    23    13     6 1   
    24    14     2 1   
    25     9     8 1   
    26     9    10 1   
    27     8     7 3   
    28     7     6 1   
    29     6     4 2   
    30     2     1 2   
    31     2     3 1   
    32    11    10 1   
    33    11    12 1   
    34     4     3 1   
    35     4     5 1   
    36     3    35 1   
    37     5    36 1   
    38     5    37 1   
    39     9    38 1   
    40     9    39 1   
    41    10    40 1   
    42    10    41 1   
    43    11    42 1   
    44    11    43 1   
    45    12    44 1   
    46    12    45 1   
    47    13    46 1   
    48    13    47 1   
    49    15    48 1   
    50    17    49 1   
    51    17    50 1   
    52    18    51 1   
    53    19    52 1   
    54    20    53 1   
    55    21    54 1   
    56    21    55 1   
    57    56     5 1   
    58    57    12 1   
@<TRIPOS>SUBSTRUCTURE
     1 0L6         1 TEMP              0 ****  ****    0 ROOT
