@<TRIPOS>MOLECULE
molecule
   59    61     1     0     0
SMALL
bcc


@<TRIPOS>ATOM
      1 O6           0.0000     0.0000     0.0000 o          1 0L7      -0.714500
      2 C6           1.2190     0.0000     0.0000 c          1 0L7       0.765100
      3 N1           1.9130     0.0000     1.1600 ns         1 0L7      -0.472400
      4 C2           3.2760    -0.0000     1.1430 cc         1 0L7       0.208800
      5 N2           3.9570    -0.0010     2.3350 nz         1 0L7      -0.697600
      6 N3           3.9600     0.0010     0.0210 nd         1 0L7      -0.700100
      7 C5           1.9420    -0.0030    -1.2110 cd         1 0L7      -0.339600
      8 C4           3.3410     0.0030    -1.1700 cc         1 0L7       0.227100
      9 C7           1.5720    -0.0050    -2.6320 cd         1 0L7      -0.028000
     10 C32          0.2460    -0.0000    -3.1740 ch         1 0L7      -0.034000
     11 C33         -0.8350     0.0180    -3.6320 c1         1 0L7      -0.286100
     12 C34         -2.5790     0.1340    -3.9800 c3         1 0L7       0.003700
     13 C35         -3.1270    -0.0060    -2.5850 c3         1 0L7      -0.023400
     14 C36         -4.6000    -0.6590    -3.2190 c3         1 0L7      -0.037200
     15 N37         -5.7780     0.0750    -2.1320 nz         1 0L7      -0.972600
     16 C8           2.7370    -0.0090    -3.3320 cc         1 0L7      -0.086300
     17 N9           3.7910     0.0040    -2.4600 na         1 0L7      -0.062100
     18 C1'          5.2020     0.0030    -2.8530 c3         1 0L7       0.243800
     19 C2'          5.7430    -1.4400    -2.8610 c3         1 0L7      -0.182400
     20 C3'          6.2360    -1.6520    -4.3130 c3         1 0L7       0.166100
     21 O3'          7.4740    -2.3670    -4.3320 oh         1 0L7      -0.632800
     22 O4'          5.3370     0.5220    -4.1870 os         1 0L7      -0.404600
     23 C4'          6.4300    -0.1950    -4.8070 c3         1 0L7       0.122100
     24 C5'          6.3250    -0.1240    -6.3300 c3         1 0L7      -0.015600
     25 O5'          6.6230     1.2040    -6.7670 os         1 0L7      -0.544200
     26 PA           6.6080     1.6410    -8.3170 p5         1 0L7       1.409800
     27 O1A          7.7720     0.8570    -9.1060 o          1 0L7      -0.819500
     28 O2A          5.2950     1.3060    -8.9120 o          1 0L7      -0.819500
     29 O3A          6.8590     3.2280    -8.4290 os         1 0L7      -0.716800
     30 PB           6.5730     4.3280    -9.5680 p5         1 0L7       1.559800
     31 O1B          5.0230     4.7620    -9.5180 o          1 0L7      -0.653500
     32 O2B          6.8810     3.7530   -10.8970 o          1 0L7      -0.653500
     33 O3B          7.5010     5.6180    -9.3140 os         1 0L7      -0.703800
     34 PG           7.9200     6.8880   -10.2110 p5         1 0L7       1.262900
     35 O3G          9.2570     7.5540    -9.6060 o          1 0L7      -0.537167
     36 O2G          6.7290     7.9710   -10.2000 o          1 0L7      -0.537167
     37 O1G          8.1750     6.4480   -11.6010 o          1 0L7      -0.537167
     38 H1           1.4910    -0.0880     2.0630 hn         1 0L7       0.279500
     39 H2           3.3460    -0.3040     3.0680 hn         1 0L7       0.368133
     40 H3           4.6570    -0.7140     2.3870 hn         1 0L7       0.368133
     41 H4          -2.4180    -0.7380    -4.6020 hc         1 0L7       0.102700
     42 H5          -2.3960     1.0870    -4.4600 hc         1 0L7       0.102700
     43 H6          -2.9220    -0.7640    -1.8390 hc         1 0L7       0.071200
     44 H7          -3.5850     0.9280    -2.2830 hc         1 0L7       0.071200
     45 H8          -4.4930    -1.7120    -2.9910 hx         1 0L7       0.088200
     46 H9          -4.7990    -0.0420    -4.0880 hx         1 0L7       0.088200
     47 H10         -5.3740    -0.0470    -1.2250 hn         1 0L7       0.364800
     48 H11         -6.0920     1.0190    -2.2390 hn         1 0L7       0.364800
     49 H13          2.6270     0.2060    -4.3880 h4         1 0L7       0.200000
     50 H14          5.7810     0.6070    -2.1650 h2         1 0L7       0.067700
     51 H15          6.4010    -1.4840    -2.0020 hc         1 0L7       0.054700
     52 H16          4.9400    -2.0730    -2.5050 hc         1 0L7       0.054700
     53 H17          5.4810    -2.1580    -4.9020 h1         1 0L7       0.098700
     54 H18          8.2350    -2.0070    -3.9080 ho         1 0L7       0.414000
     55 H19          7.3810     0.1960    -4.4650 h1         1 0L7       0.055700
     56 H20          5.8320    -1.0480    -6.6070 h1         1 0L7       0.148200
     57 H21          5.4800     0.5360    -6.4830 h1         1 0L7       0.148200
     58 H23          4.2910     0.9420     2.3310 hn         1 0L7       0.368133
     59 H373        -6.3490    -0.7430    -2.2080 hn         1 0L7       0.364800
@<TRIPOS>BOND
     1    35    34 1   
     2    37    34 1   
     3    34    36 1   
     4    34    33 1   
     5    31    30 1   
     6    28    26 1   
     7    33    30 1   
     8    30    32 1   
     9    30    29 1   
    10    24    25 1   
    11    24    23 1   
    12    26    29 1   
    13    26    25 1   
    14    26    27 1   
    15    21    20 1   
    16    23    20 1   
    17    23    22 1   
    18    20    19 1   
    19    22    18 1   
    20    19    18 1   
    21    18    17 1   
    22    16    17 1   
    23    16     9 2   
    24    17     8 1   
    25     9    10 1   
    26     9     7 1   
    27    10    11 3   
    28     8     6 1   
    29     8     7 2   
    30    11    12 1   
    31    12    13 1   
    32     6     4 2   
    33     7     2 1   
    34    13    14 1   
    35     4     5 1   
    36     4     3 1   
    37     2     3 1   
    38     2     1 2   
    39    14    15 1   
    40     3    38 1   
    41     5    39 1   
    42     5    40 1   
    43    12    41 1   
    44    12    42 1   
    45    13    43 1   
    46    13    44 1   
    47    14    45 1   
    48    14    46 1   
    49    15    47 1   
    50    15    48 1   
    51    16    49 1   
    52    18    50 1   
    53    19    51 1   
    54    19    52 1   
    55    20    53 1   
    56    21    54 1   
    57    23    55 1   
    58    24    56 1   
    59    24    57 1   
    60    58     5 1   
    61    59    15 1   
@<TRIPOS>SUBSTRUCTURE
     1 0L7         1 TEMP              0 ****  ****    0 ROOT
