@<TRIPOS>MOLECULE
molecule
   59    61     1     0     0
SMALL
bcc


@<TRIPOS>ATOM
      1 O6           0.0000     0.0000     0.0000 o          1 0L7      -0.781500
      2 C6           1.2510     0.0000     0.0000 c          1 0L7       0.700100
      3 N1           1.9370     0.0000     1.1640 ns         1 0L7      -0.458400
      4 C2           3.2910    -0.0010     1.1770 cc         1 0L7       0.305800
      5 N2           3.9550    -0.0010     2.3560 nz         1 0L7      -1.162600
      6 N3           3.9960     0.0010     0.0260 nd         1 0L7      -0.743100
      7 C5           1.9680    -0.0090    -1.1910 cd         1 0L7      -0.343600
      8 C4           3.3580     0.0000    -1.1670 cc         1 0L7       0.255100
      9 C7           1.6830     0.0080    -2.5380 cd         1 0L7       0.031000
     10 C32          0.4690    -0.0100    -3.0920 ch         1 0L7      -0.074000
     11 C33         -0.5990    -0.0380    -3.5970 c1         1 0L7      -0.168100
     12 C34         -1.9750    -0.0580    -4.1490 c3         1 0L7      -0.014300
     13 C35         -3.6370     0.0200    -3.0690 c3         1 0L7      -0.088400
     14 C36         -3.4110     1.1540    -1.9790 c3         1 0L7       0.121800
     15 N37         -2.4000     0.9760    -1.3730 nz         1 0L7      -0.820600
     16 C8           2.8180    -0.0050    -3.3130 cc         1 0L7      -0.177300
     17 N9           3.8300     0.0140    -2.4280 na         1 0L7      -0.135100
     18 C1'          5.2670    -0.0110    -2.7880 c3         1 0L7       0.164800
     19 C2'          5.6480    -1.4810    -2.8210 c3         1 0L7      -0.015400
     20 C3'          5.7780    -1.8030    -4.2940 c3         1 0L7       0.097100
     21 O3'          6.8210    -2.7580    -4.4990 oh         1 0L7      -0.613800
     22 O4'          5.4570     0.5170    -4.1030 os         1 0L7      -0.391600
     23 C4'          6.1030    -0.4580    -4.9260 c3         1 0L7       0.071100
     24 C5'          5.5920    -0.3550    -6.3570 c3         1 0L7       0.171400
     25 O5'          4.1700    -0.4150    -6.3370 os         1 0L7      -0.596200
     26 PA           3.3690    -1.2980    -7.4130 p5         1 0L7       1.630800
     27 O1A          1.9350    -0.8240    -7.4340 o          1 0L7      -0.864500
     28 O2A          4.1360    -1.4310    -8.7080 o          1 0L7      -0.864500
     29 O3A          3.3840    -2.6970    -6.6250 os         1 0L7      -0.800800
     30 PB           4.3170    -3.9220    -7.0860 p5         1 0L7       1.678800
     31 O1B          4.6540    -4.6920    -5.8280 o          1 0L7      -0.540500
     32 O2B          5.4390    -3.4060    -7.9580 o          1 0L7      -0.540500
     33 O3B          3.2450    -4.7680    -7.9410 os         1 0L7      -0.724800
     34 PG           3.3540    -4.9670    -9.5360 p5         1 0L7       1.399900
     35 O3G          4.0920    -3.7430   -10.0290 o          1 0L7      -0.651167
     36 O2G          1.9060    -5.0210    -9.9660 o          1 0L7      -0.651167
     37 O1G          4.1010    -6.2680    -9.6890 o          1 0L7      -0.651167
     38 H1           1.8190    -0.6950     1.8750 hn         1 0L7       0.306500
     39 H2           4.8730     0.3740     2.2220 hn         1 0L7       0.334800
     40 H3           3.4580     0.5600     3.0190 hn         1 0L7       0.334800
     41 H4          -2.0300     0.7730    -4.8410 hc         1 0L7       0.083200
     42 H5          -2.0460    -0.9630    -4.7400 hc         1 0L7       0.083200
     43 H6          -3.8100    -0.9330    -2.5840 hc         1 0L7       0.057200
     44 H7          -4.4790     0.2750    -3.7010 hc         1 0L7       0.057200
     45 H8          -4.2440     1.1510    -1.2870 hx         1 0L7       0.089200
     46 H9          -3.3630     2.1160    -2.4730 hx         1 0L7       0.089200
     47 H10         -2.5150     1.2960    -0.4320 hn         1 0L7       0.480800
     48 H11         -2.1800    -0.0000    -1.3700 hn         1 0L7       0.480800
     49 H13          2.8890     0.3230    -4.3430 h4         1 0L7       0.152000
     50 H14          5.8650     0.5270    -2.0630 h2         1 0L7       0.147700
     51 H15          5.0210    -2.0320    -2.1310 hc         1 0L7       0.007700
     52 H16          5.5160    -1.8660    -3.8250 hc         1 0L7       0.007700
     53 H17          4.8380    -2.1790    -4.6780 h1         1 0L7       0.101700
     54 H18          7.4850    -2.6450    -3.8390 ho         1 0L7       0.421000
     55 H19          7.1740    -0.2980    -4.9050 h1         1 0L7       0.107700
     56 H20          6.1620     0.3590    -6.9390 h1         1 0L7       0.044700
     57 H21          5.5350    -1.3250    -6.8370 h1         1 0L7       0.044700
     58 H23          4.4330    -0.8730     2.4690 hn         1 0L7       0.334800
     59 H373        -1.7010     1.6170    -1.6950 hn         1 0L7       0.480800
@<TRIPOS>BOND
     1    35    34 1   
     2    37    34 1   
     3    34    36 1   
     4    34    33 1   
     5    31    30 1   
     6    28    26 1   
     7    33    30 1   
     8    30    32 1   
     9    30    29 1   
    10    24    25 1   
    11    24    23 1   
    12    26    29 1   
    13    26    25 1   
    14    26    27 1   
    15    21    20 1   
    16    23    20 1   
    17    23    22 1   
    18    20    19 1   
    19    22    18 1   
    20    19    18 1   
    21    18    17 1   
    22    16    17 1   
    23    16     9 2   
    24    17     8 1   
    25     9    10 1   
    26     9     7 1   
    27    10    11 3   
    28     8     6 1   
    29     8     7 2   
    30    11    12 1   
    31    12    13 1   
    32     6     4 2   
    33     7     2 1   
    34    13    14 1   
    35     4     5 1   
    36     4     3 1   
    37     2     3 1   
    38     2     1 2   
    39    14    15 1   
    40     3    38 1   
    41     5    39 1   
    42     5    40 1   
    43    12    41 1   
    44    12    42 1   
    45    13    43 1   
    46    13    44 1   
    47    14    45 1   
    48    14    46 1   
    49    15    47 1   
    50    15    48 1   
    51    16    49 1   
    52    18    50 1   
    53    19    51 1   
    54    19    52 1   
    55    20    53 1   
    56    21    54 1   
    57    23    55 1   
    58    24    56 1   
    59    24    57 1   
    60    58     5 1   
    61    59    15 1   
@<TRIPOS>SUBSTRUCTURE
     1 0L7         1 TEMP              0 ****  ****    0 ROOT
