@<TRIPOS>MOLECULE
0L9
   39    41     1     0     0
SMALL
bcc


@<TRIPOS>ATOM
      1 Cl1          0.0250    -0.4650     0.3040 cl         1 0L9      -0.131400
      2 C19          1.7140    -0.2820     0.1360 ca         1 0L9       0.015400
      3 C20          2.4970     0.0090     1.2550 ca         1 0L9      -0.138500
      4 C21          3.8770     0.1550     1.1140 ca         1 0L9      -0.104500
      5 C18          2.2970    -0.4220    -1.1260 ca         1 0L9      -0.138500
      6 C17          3.6760    -0.2810    -1.2590 ca         1 0L9      -0.104500
      7 C10          4.4780     0.0020    -0.1430 cp         1 0L9      -0.045000
      8 C9           5.9320     0.1250    -0.3110 cp         1 0L9      -0.015000
      9 C8           6.6180     1.3050    -0.0680 ca         1 0L9      -0.144600
     10 C11          5.9310     2.4930     0.5360 c3         1 0L9       0.024400
     11 O13          6.2810     3.7180    -0.1030 os         1 0L9      -0.380600
     12 C14          5.6520     3.8890    -1.3590 c3         1 0L9       0.109700
     13 C12          6.2740     2.6440     2.0700 c          1 0L9       0.939600
     14 O1           5.5100     2.0160     2.8530 o          1 0L9      -0.807300
     15 O2           7.2400     3.3630     2.4180 o          1 0L9      -0.807300
     16 C5           6.6510    -1.0310    -0.7690 ca         1 0L9      -0.144300
     17 C6           6.0290    -2.2910    -0.9660 ca         1 0L9      -0.071000
     18 C1           6.7570    -3.3720    -1.4080 ca         1 0L9      -0.043900
     19 Br           5.9300    -5.0370    -1.6730 br         1 0L9      -0.124100
     20 C2           8.1430    -3.2460    -1.6660 ca         1 0L9      -0.122000
     21 C3           8.7750    -2.0440    -1.4750 ca         1 0L9      -0.170300
     22 C4           8.0480    -0.8980    -1.0180 ca         1 0L9       0.408600
     23 N            8.7130     0.2940    -0.8380 nb         1 0L9      -0.704000
     24 C7           8.0370     1.3440    -0.3790 ca         1 0L9       0.485600
     25 C16          8.7770     2.6320    -0.2000 c3         1 0L9      -0.180400
     26 H1           2.0360     0.1370     2.2450 ha         1 0L9       0.141000
     27 H2           4.4990     0.4370     1.9930 ha         1 0L9       0.178500
     28 H3           1.6780    -0.6400    -2.0070 ha         1 0L9       0.141000
     29 H4           4.1420    -0.3920    -2.2500 ha         1 0L9       0.178500
     30 H5           4.8130     2.3580     0.4670 h1         1 0L9       0.048700
     31 H6           6.0090     4.8860    -1.7200 h1         1 0L9       0.017367
     32 H7           4.5380     3.8900    -1.2550 h1         1 0L9       0.017367
     33 H8           5.9600     3.0850    -2.0730 h1         1 0L9       0.017367
     34 H10          4.9520    -2.3850    -0.7490 ha         1 0L9       0.153000
     35 H11          8.7130    -4.1200    -2.0160 ha         1 0L9       0.133000
     36 H12          9.8550    -1.9460    -1.6670 ha         1 0L9       0.143000
     37 H13          8.4390     3.3510    -0.9890 hc         1 0L9       0.075700
     38 H14          8.5180     3.0730     0.8030 hc         1 0L9       0.075700
     39 H15          9.8820     2.5020    -0.2750 hc         1 0L9       0.075700
@<TRIPOS>BOND
     1     1     2 1   
     2     2     3 ar  
     3     2     5 ar  
     4     3     4 ar  
     5     3    26 1   
     6     4     7 ar  
     7     4    27 1   
     8     5     6 ar  
     9     5    28 1   
    10     6     7 ar  
    11     6    29 1   
    12     7     8 1   
    13     8     9 ar  
    14     8    16 ar  
    15     9    10 1   
    16     9    24 ar  
    17    10    11 1   
    18    10    13 1   
    19    10    30 1   
    20    11    12 1   
    21    12    31 1   
    22    12    32 1   
    23    12    33 1   
    24    13    14 1   
    25    13    15 1   
    26    16    17 ar  
    27    16    22 ar  
    28    17    18 ar  
    29    17    34 1   
    30    18    19 1   
    31    18    20 ar  
    32    20    21 ar  
    33    20    35 1   
    34    21    22 ar  
    35    21    36 1   
    36    22    23 ar  
    37    23    24 ar  
    38    24    25 1   
    39    25    37 1   
    40    25    38 1   
    41    25    39 1   
@<TRIPOS>SUBSTRUCTURE
     1 0L9         1 TEMP              0 ****  ****    0 ROOT
