@<TRIPOS>MOLECULE
molecule
   39    41     1     0     0
SMALL
bcc


@<TRIPOS>ATOM
      1 Cl1          0.0000     0.0000     0.0000 cl         1 0L9      -0.145400
      2 C19          1.7360     0.0000     0.0000 ca         1 0L9       0.025400
      3 C20          2.4260     0.0000     1.2000 ca         1 0L9      -0.139000
      4 C21          3.8050     0.0000     1.2060 ca         1 0L9      -0.096500
      5 C18          2.4260    -0.0080    -1.2010 ca         1 0L9      -0.139000
      6 C17          3.8060    -0.0070    -1.2070 ca         1 0L9      -0.096500
      7 C10          4.5050    -0.0010     0.0000 cp         1 0L9      -0.047000
      8 C9           5.9860    -0.0000     0.0000 cp         1 0L9       0.003000
      9 C8           6.7040     1.0810     0.4960 ca         1 0L9      -0.125600
     10 C11          5.9790     2.2810     1.0480 c3         1 0L9       0.067400
     11 O13          6.5850     3.4750     0.5490 os         1 0L9      -0.420600
     12 C14          5.6800     4.5720     0.4120 c3         1 0L9       0.140700
     13 C12          6.0610     2.2680     2.5530 c          1 0L9       0.878600
     14 O1           5.4650     1.2880     3.2500 o          1 0L9      -0.825300
     15 O2           6.6630     3.1410     3.1320 o          1 0L9      -0.825300
     16 C5           6.7190    -1.1060    -0.5020 ca         1 0L9      -0.152300
     17 C6           6.0710    -2.2370    -1.0160 ca         1 0L9      -0.070000
     18 C1           6.8100    -3.2800    -1.4890 ca         1 0L9      -0.035900
     19 Br           5.9350    -4.8070    -2.1820 br         1 0L9      -0.133100
     20 C2           8.2030    -3.2360    -1.4690 ca         1 0L9      -0.120000
     21 C3           8.8630    -2.1510    -0.9760 ca         1 0L9      -0.166300
     22 C4           8.1340    -1.0570    -0.4800 ca         1 0L9       0.429600
     23 N            8.7570     0.0200     0.0090 nb         1 0L9      -0.719000
     24 C7           8.0930     1.0480     0.4810 ca         1 0L9       0.493600
     25 C16          8.8570     2.2310     1.0160 c3         1 0L9      -0.154400
     26 H1           1.8810     0.0010     2.1370 ha         1 0L9       0.138000
     27 H2           4.3440     0.0030     2.1460 ha         1 0L9       0.180000
     28 H3           1.8820    -0.0120    -2.1380 ha         1 0L9       0.138000
     29 H4           4.3440    -0.0110    -2.1470 ha         1 0L9       0.180000
     30 H5           4.9400     2.2480     0.7430 h1         1 0L9       0.048700
     31 H6           6.1690     5.4850     0.7310 h1         1 0L9       0.019700
     32 H7           5.3800     4.6660    -0.6240 h1         1 0L9       0.019700
     33 H8           4.8060     4.3970     1.0270 h1         1 0L9       0.019700
     34 H10          4.9950    -2.3270    -0.9370 ha         1 0L9       0.150000
     35 H11          8.7690    -4.0770    -1.8500 ha         1 0L9       0.130000
     36 H12          9.9460    -2.1320    -0.9680 ha         1 0L9       0.143000
     37 H13          8.5780     3.1200     0.4650 hc         1 0L9       0.069033
     38 H14          8.6230     2.3670     2.0650 hc         1 0L9       0.069033
     39 H15          9.9200     2.0550     0.9040 hc         1 0L9       0.069033
@<TRIPOS>BOND
     1    12    11 1   
     2    25    24 1   
     3    11    10 1   
     4    23    24 ar  
     5    23    22 ar  
     6    21    22 ar  
     7    21    20 ar  
     8    24     9 ar  
     9    22    16 ar  
    10    20    18 ar  
    11     6     5 ar  
    12     6     7 ar  
    13     9    10 1   
    14     9     8 ar  
    15    16     8 ar  
    16    16    17 ar  
    17    18    17 ar  
    18    18    19 1   
    19     5     2 ar  
    20    10    13 1   
    21     8     7 1   
    22     7     4 ar  
    23     2     1 1   
    24     2     3 ar  
    25    13    15 1   
    26    13    14 1   
    27     4     3 ar  
    28     3    26 1   
    29     4    27 1   
    30     5    28 1   
    31     6    29 1   
    32    10    30 1   
    33    12    31 1   
    34    12    32 1   
    35    12    33 1   
    36    17    34 1   
    37    20    35 1   
    38    21    36 1   
    39    25    37 1   
    40    25    38 1   
    41    25    39 1   
@<TRIPOS>SUBSTRUCTURE
     1 0L9         1 TEMP              0 ****  ****    0 ROOT
