@<TRIPOS>MOLECULE
0L9
   39    41     1     0     0
SMALL
bcc


@<TRIPOS>ATOM
      1 Cl1          0.0000     0.0000     0.0000 cl         1 0L9      -0.073400
      2 C19          1.7360     0.0000     0.0000 ca         1 0L9      -0.031600
      3 C20          2.4260     0.0000     1.2000 ca         1 0L9      -0.116500
      4 C21          3.8050     0.0000     1.2060 ca         1 0L9      -0.083000
      5 C18          2.4260    -0.0080    -1.2010 ca         1 0L9      -0.116500
      6 C17          3.8060    -0.0070    -1.2070 ca         1 0L9      -0.083000
      7 C10          4.5050    -0.0010     0.0000 cp         1 0L9      -0.036000
      8 C9           5.9860    -0.0000     0.0000 cp         1 0L9       0.006000
      9 C8           6.7040     1.0810     0.4960 ca         1 0L9      -0.120600
     10 C11          5.9790     2.2810     1.0480 c3         1 0L9       0.102400
     11 O13          6.5850     3.4750     0.5490 os         1 0L9      -0.399600
     12 C14          5.6800     4.5720     0.4120 c3         1 0L9       0.252700
     13 C12          6.0610     2.2680     2.5530 c          1 0L9       0.963600
     14 O1           5.4650     1.2880     3.2500 o          1 0L9      -0.871800
     15 O2           6.6630     3.1410     3.1320 o          1 0L9      -0.871800
     16 C5           6.7190    -1.1060    -0.5020 ca         1 0L9      -0.141300
     17 C6           6.0710    -2.2370    -1.0160 ca         1 0L9      -0.061000
     18 C1           6.8100    -3.2800    -1.4890 ca         1 0L9       0.031100
     19 Br           5.9350    -4.8070    -2.1820 br         1 0L9      -0.179100
     20 C2           8.2030    -3.2360    -1.4690 ca         1 0L9      -0.107000
     21 C3           8.8630    -2.1510    -0.9760 ca         1 0L9      -0.138300
     22 C4           8.1340    -1.0570    -0.4800 ca         1 0L9       0.379600
     23 N            8.7570     0.0200     0.0090 nb         1 0L9      -0.610000
     24 C7           8.0930     1.0480     0.4810 ca         1 0L9       0.444600
     25 C16          8.8570     2.2310     1.0160 c3         1 0L9      -0.091400
     26 H1           1.8810     0.0010     2.1370 ha         1 0L9       0.110000
     27 H2           4.3440     0.0030     2.1460 ha         1 0L9       0.154000
     28 H3           1.8820    -0.0120    -2.1380 ha         1 0L9       0.110000
     29 H4           4.3440    -0.0110    -2.1470 ha         1 0L9       0.154000
     30 H5           4.9400     2.2480     0.7430 h1         1 0L9       0.024700
     31 H6           4.8030     4.3950     1.0230 h1         1 0L9      -0.020300
     32 H7           5.3850     4.6690    -0.6250 h1         1 0L9      -0.020300
     33 H8           6.1680     5.4840     0.7360 h1         1 0L9      -0.020300
     34 H10          4.9950    -2.3270    -0.9370 ha         1 0L9       0.129000
     35 H11          8.7690    -4.0770    -1.8500 ha         1 0L9       0.105000
     36 H12          9.9460    -2.1320    -0.9680 ha         1 0L9       0.111000
     37 H13          8.5790     3.1200     0.4650 hc         1 0L9       0.037367
     38 H14          8.6230     2.3680     2.0650 hc         1 0L9       0.037367
     39 H15          9.9200     2.0550     0.9050 hc         1 0L9       0.037367
@<TRIPOS>BOND
     1     1     2 1   
     2     2     3 ar  
     3     2     5 ar  
     4     3     4 ar  
     5     3    26 1   
     6     4     7 ar  
     7     4    27 1   
     8     5     6 ar  
     9     5    28 1   
    10     6     7 ar  
    11     6    29 1   
    12     7     8 1   
    13     8     9 ar  
    14     8    16 ar  
    15     9    10 1   
    16     9    24 ar  
    17    10    11 1   
    18    10    13 1   
    19    10    30 1   
    20    11    12 1   
    21    12    31 1   
    22    12    32 1   
    23    12    33 1   
    24    13    14 1   
    25    13    15 1   
    26    16    17 ar  
    27    16    22 ar  
    28    17    18 ar  
    29    17    34 1   
    30    18    19 1   
    31    18    20 ar  
    32    20    21 ar  
    33    20    35 1   
    34    21    22 ar  
    35    21    36 1   
    36    22    23 ar  
    37    23    24 ar  
    38    24    25 1   
    39    25    37 1   
    40    25    38 1   
    41    25    39 1   
@<TRIPOS>SUBSTRUCTURE
     1 0L9         1 TEMP              0 ****  ****    0 ROOT
