@<TRIPOS>MOLECULE
molecule
   30    32     1     0     0
SMALL
bcc


@<TRIPOS>ATOM
      1 Cl           0.0000     0.0000     0.0000 cl         1 0LA      -0.142400
      2 C3           1.7370     0.0000     0.0000 ca         1 0LA      -0.015600
      3 C2           2.4270     0.0000     1.2020 ca         1 0LA      -0.108000
      4 C1           3.8060    -0.0070     1.2180 ca         1 0LA      -0.161000
      5 C9A          4.5170    -0.0120     0.0230 ca         1 0LA       0.001800
      6 N9           5.8730    -0.0190    -0.2550 na         1 0LA      -0.196300
      7 C4           2.4240    -0.0060    -1.1960 ca         1 0LA      -0.070000
      8 C4A          3.8170    -0.0130    -1.1930 cp         1 0LA      -0.065000
      9 C4B          4.8330    -0.0200    -2.2610 cp         1 0LA      -0.117000
     10 C5           4.7600    -0.0240    -3.6520 ca         1 0LA      -0.088000
     11 C6           5.9190    -0.0310    -4.3980 ca         1 0LA      -0.105000
     12 C8A          6.0820    -0.0240    -1.6230 ca         1 0LA      -0.001200
     13 C8           7.2400    -0.0320    -2.3930 ca         1 0LA      -0.174000
     14 C7           7.1540    -0.0360    -3.7690 ca         1 0LA       0.028700
     15 C10          8.4140    -0.0440    -4.5960 c3         1 0LA      -0.145400
     16 C14          8.4500     1.2020    -5.4830 c3         1 0LA      -0.060100
     17 C11          8.4380    -1.2780    -5.4610 c          1 0LA       0.894600
     18 O13          7.5260    -2.0690    -5.4120 o          1 0LA      -0.838800
     19 O12          9.4730    -1.4980    -6.2870 o          1 0LA      -0.838800
     20 H1           1.8790     0.0050     2.1370 ha         1 0LA       0.131000
     21 H2           4.3350    -0.0070     2.1630 ha         1 0LA       0.123000
     22 H3           6.5980    -0.0210     0.4350 hn         1 0LA       0.290700
     23 H4           1.8850     0.0840    -2.1310 ha         1 0LA       0.142000
     24 H5           3.7960    -0.0200    -4.1460 ha         1 0LA       0.119000
     25 H6           5.8650    -0.0340    -5.4800 ha         1 0LA       0.152000
     26 H7           8.2100    -0.0350    -1.9110 ha         1 0LA       0.123000
     27 H8           9.2770    -0.0460    -3.9410 hc         1 0LA       0.047700
     28 H9           7.7680     1.0730    -6.3150 hc         1 0LA       0.023700
     29 H10          8.1530     2.0670    -4.9030 hc         1 0LA       0.023700
     30 H11          9.4550     1.3480    -5.8600 hc         1 0LA       0.023700
@<TRIPOS>BOND
     1    18    17 1
     2    19    17 1
     3    17    15 1
     4     6    12 1
     5     6     5 1
     6    13    12 ar
     7    13    14 ar
     8    15    14 1
     9    15    16 1
    10    12     9 ar
    11     4     5 ar
    12     4     3 ar
    13     5     8 ar
    14    14    11 ar
    15     3     2 ar
    16     9     8 1
    17     9    10 ar
    18     8     7 ar
    19    11    10 ar
    20     2     7 ar
    21     2     1 1
    22     3    20 1
    23     4    21 1
    24     6    22 1
    25     7    23 1
    26    10    24 1
    27    11    25 1
    28    13    26 1
    29    15    27 1
    30    16    28 1
    31    16    29 1
    32    16    30 1
@<TRIPOS>SUBSTRUCTURE
     1 0LA         1 TEMP              0 ****  ****    0 ROOT
