@<TRIPOS>MOLECULE
0LA
   30    32     1     0     0
SMALL
bcc


@<TRIPOS>ATOM
      1 Cl           0.0000     0.0000     0.0000 cl         1 0LA      -0.069400
      2 C3           1.7370     0.0000     0.0000 ca         1 0LA      -0.073600
      3 C2           2.4270     0.0000     1.2020 ca         1 0LA      -0.090000
      4 C1           3.8060    -0.0070     1.2180 ca         1 0LA      -0.124000
      5 C9A          4.5170    -0.0120     0.0230 ca         1 0LA      -0.179200
      6 N9           5.8730    -0.0190    -0.2550 na         1 0LA       0.320700
      7 C4           2.4240    -0.0060    -1.1960 ca         1 0LA      -0.038000
      8 C4A          3.8170    -0.0130    -1.1930 cp         1 0LA      -0.061000
      9 C4B          4.8330    -0.0200    -2.2610 cp         1 0LA      -0.110000
     10 C5           4.7600    -0.0240    -3.6520 ca         1 0LA      -0.061000
     11 C6           5.9190    -0.0310    -4.3980 ca         1 0LA      -0.076000
     12 C8A          6.0820    -0.0240    -1.6230 ca         1 0LA      -0.182200
     13 C8           7.2400    -0.0320    -2.3930 ca         1 0LA      -0.141000
     14 C7           7.1540    -0.0360    -3.7690 ca         1 0LA       0.029700
     15 C10          8.4140    -0.0440    -4.5960 c3         1 0LA      -0.120400
     16 C14          8.4500     1.2020    -5.4830 c3         1 0LA       0.032900
     17 C11          8.4380    -1.2780    -5.4610 c          1 0LA       0.982600
     18 O13          7.5260    -2.0690    -5.4120 o          1 0LA      -0.890300
     19 O12          9.4730    -1.4980    -6.2870 o          1 0LA      -0.890300
     20 H1           1.8790     0.0050     2.1370 ha         1 0LA       0.102000
     21 H2           4.3350    -0.0070     2.1630 ha         1 0LA       0.096000
     22 H3           6.5980    -0.0210     0.4350 hn         1 0LA       0.111700
     23 H4           1.8850     0.0840    -2.1310 ha         1 0LA       0.111000
     24 H5           3.7960    -0.0200    -4.1460 ha         1 0LA       0.091000
     25 H6           5.8650    -0.0340    -5.4800 ha         1 0LA       0.126000
     26 H7           8.2100    -0.0350    -1.9110 ha         1 0LA       0.101000
     27 H8           9.2770    -0.0460    -3.9410 hc         1 0LA       0.023700
     28 H9           8.1530     2.0670    -4.9030 hc         1 0LA      -0.006967
     29 H10          9.4550     1.3480    -5.8600 hc         1 0LA      -0.006967
     30 H11          7.7680     1.0730    -6.3150 hc         1 0LA      -0.006967
@<TRIPOS>BOND
     1     1     2 1   
     2     2     3 ar  
     3     2     7 ar  
     4     3     4 ar  
     5     3    20 1   
     6     4     5 ar  
     7     4    21 1   
     8     5     6 1   
     9     5     8 ar  
    10     6    12 1   
    11     6    22 1   
    12     7     8 ar  
    13     7    23 1   
    14     8     9 1   
    15     9    10 ar  
    16     9    12 ar  
    17    10    11 ar  
    18    10    24 1   
    19    11    14 ar  
    20    11    25 1   
    21    12    13 ar  
    22    13    14 ar  
    23    13    26 1   
    24    14    15 1   
    25    15    16 1   
    26    15    17 1   
    27    15    27 1   
    28    16    28 1   
    29    16    29 1   
    30    16    30 1   
    31    17    18 1   
    32    17    19 1   
@<TRIPOS>SUBSTRUCTURE
     1 0LA         1 TEMP              0 ****  ****    0 ROOT
