@<TRIPOS>MOLECULE
0LA
   30    32     1     0     0
SMALL
bcc


@<TRIPOS>ATOM
      1 Cl          -0.0060     0.1620     0.1560 cl         1 0LA      -0.134400
      2 C3           1.7010     0.1070     0.1160 ca         1 0LA      -0.017600
      3 C2           2.4080     0.0690     1.3220 ca         1 0LA      -0.116000
      4 C1           3.8020     0.0280     1.3310 ca         1 0LA      -0.158000
      5 C9A          4.4760     0.0240     0.1080 ca         1 0LA      -0.021200
      6 N9           5.8590     0.0720    -0.1520 na         1 0LA      -0.169300
      7 C4           2.3520     0.1000    -1.1250 ca         1 0LA      -0.088000
      8 C4A          3.7350     0.0530    -1.1400 cp         1 0LA      -0.044000
      9 C4B          4.7230     0.0170    -2.2030 cp         1 0LA      -0.118000
     10 C5           4.6500    -0.0140    -3.5880 ca         1 0LA      -0.087000
     11 C6           5.8290    -0.0790    -4.3280 ca         1 0LA      -0.170000
     12 C8A          6.0160    -0.0190    -1.5620 ca         1 0LA      -0.029200
     13 C8           7.1890    -0.0820    -2.3080 ca         1 0LA      -0.146000
     14 C7           7.0920    -0.1090    -3.7110 ca         1 0LA       0.025700
     15 C10          8.3650    -0.1590    -4.4820 c3         1 0LA      -0.176400
     16 C14          8.1880    -0.2070    -5.9790 c3         1 0LA      -0.063100
     17 C11          9.2450    -1.3640    -4.0040 c          1 0LA       0.924600
     18 O13          9.8420    -1.2250    -2.8990 o          1 0LA      -0.829800
     19 O12          9.3280    -2.3770    -4.7450 o          1 0LA      -0.829800
     20 H1           1.8630     0.0710     2.2770 ha         1 0LA       0.132000
     21 H2           4.3490     0.0020     2.2820 ha         1 0LA       0.132000
     22 H3           6.5030    -0.3860     0.4460 hn         1 0LA       0.278700
     23 H4           1.7820     0.1270    -2.0640 ha         1 0LA       0.144000
     24 H5           3.6750     0.0100    -4.0930 ha         1 0LA       0.117000
     25 H6           5.7620    -0.1190    -5.4250 ha         1 0LA       0.130000
     26 H7           8.1900    -0.1560    -1.8440 ha         1 0LA       0.193000
     27 H8           8.9510     0.7670    -4.2150 hc         1 0LA       0.052700
     28 H9           9.1940    -0.2250    -6.4640 hc         1 0LA       0.022367
     29 H10          7.6240     0.6810    -6.3550 hc         1 0LA       0.022367
     30 H11          7.6530    -1.1410    -6.2750 hc         1 0LA       0.022367
@<TRIPOS>BOND
     1     1     2 1   
     2     2     3 ar  
     3     2     7 ar  
     4     3     4 ar  
     5     3    20 1   
     6     4     5 ar  
     7     4    21 1   
     8     5     6 1   
     9     5     8 ar  
    10     6    12 1   
    11     6    22 1   
    12     7     8 ar  
    13     7    23 1   
    14     8     9 1   
    15     9    10 ar  
    16     9    12 ar  
    17    10    11 ar  
    18    10    24 1   
    19    11    14 ar  
    20    11    25 1   
    21    12    13 ar  
    22    13    14 ar  
    23    13    26 1   
    24    14    15 1   
    25    15    16 1   
    26    15    17 1   
    27    15    27 1   
    28    16    28 1   
    29    16    29 1   
    30    16    30 1   
    31    17    18 1   
    32    17    19 1   
@<TRIPOS>SUBSTRUCTURE
     1 0LA         1 TEMP              0 ****  ****    0 ROOT
