@<TRIPOS>MOLECULE
0LB
   57    60     1     0     0
SMALL
bcc


@<TRIPOS>ATOM
      1 N29         -2.1930     1.4800     1.9630 n1         1 0LB      -0.238800
      2 C28         -1.3840     0.9860     1.2910 c1         1 0LB       0.178700
      3 C25         -0.3900     0.3320     0.4850 cx         1 0LB       0.076300
      4 C27         -0.6700    -1.0970     0.0150 cx         1 0LB      -0.074900
      5 C26          0.3350    -0.8710     1.0940 cx         1 0LB      -0.074900
      6 N24          0.3590     1.2620    -0.3910 ny         1 0LB      -0.641800
      7 C22         -0.4080     1.6390    -1.6500 c          1 0LB       0.572100
      8 O23         -0.2150     0.9080    -2.6090 o          1 0LB      -0.427100
      9 C18         -1.2820     2.8690    -1.5690 c3         1 0LB      -0.107700
     10 C16         -2.6800     2.5020    -2.0660 c3         1 0LB      -0.080400
     11 C20         -0.6900     3.9970    -2.4290 c3         1 0LB      -0.125700
     12 C21         -1.6110     5.2090    -2.3230 c3         1 0LB      -0.079400
     13 C19         -3.0100     4.8710    -2.7930 c3         1 0LB      -0.087400
     14 C17         -3.5900     3.7110    -2.0130 c3         1 0LB      -0.082400
     15 C14          0.7200     4.3530    -1.9570 c          1 0LB       0.665100
     16 O15          1.1590     3.8200    -0.8990 o          1 0LB      -0.726100
     17 N8           1.5020     5.2280    -2.6550 n          1 0LB      -0.424800
     18 C10          1.1450     5.8110    -3.9320 c3         1 0LB       0.077000
     19 C12          2.2990     5.7680    -4.9630 c3         1 0LB       0.168800
     20 N11          3.5340     6.2920    -4.4120 nh         1 0LB      -0.631000
     21 C9           3.9190     5.6150    -3.1820 c3         1 0LB       0.168800
     22 C7           2.7920     5.6480    -2.1290 c3         1 0LB       0.077000
     23 C2           4.5970     6.5010    -5.3370 ca         1 0LB       0.091600
     24 C4           5.6680     7.3430    -4.9600 ca         1 0LB      -0.130000
     25 C6           6.6940     7.6310    -5.8490 ca         1 0LB      -0.144500
     26 C5           6.6740     7.0850    -7.1460 ca         1 0LB       0.122900
     27 F13          7.6730     7.3660    -8.0150 f          1 0LB      -0.129900
     28 C3           5.6140     6.2500    -7.5360 ca         1 0LB      -0.144500
     29 C1           4.5940     5.9590    -6.6390 ca         1 0LB      -0.130000
     30 H3          -1.6590    -1.5310     0.2660 hc         1 0LB       0.120200
     31 H4          -0.3310    -1.4010    -0.9950 hc         1 0LB       0.120200
     32 H5           0.0880    -1.1340     2.1430 hc         1 0LB       0.120200
     33 H6           1.4110    -1.0190     0.8790 hc         1 0LB       0.120200
     34 H7           1.2430     0.8140    -0.6630 hn         1 0LB       0.483800
     35 H8          -1.3530     3.2370    -0.5050 hc         1 0LB       0.104700
     36 H9          -3.1030     1.6840    -1.4270 hc         1 0LB       0.066200
     37 H10         -2.6120     2.1170    -3.1190 hc         1 0LB       0.066200
     38 H11         -0.6490     3.6410    -3.4970 hc         1 0LB       0.094700
     39 H12         -1.2050     6.0500    -2.9430 hc         1 0LB       0.068700
     40 H13         -1.6410     5.5610    -1.2580 hc         1 0LB       0.068700
     41 H14         -3.6680     5.7710    -2.6660 hc         1 0LB       0.065200
     42 H15         -2.9920     4.6200    -3.8860 hc         1 0LB       0.065200
     43 H16         -3.7530     4.0150    -0.9450 hc         1 0LB       0.067200
     44 H17         -4.5900     3.4320    -2.4390 hc         1 0LB       0.067200
     45 H18          0.2730     5.2690    -4.3900 h1         1 0LB       0.071950
     46 H19          0.8500     6.8870    -3.7590 h1         1 0LB       0.071950
     47 H20          2.4110     4.7050    -5.3280 h1         1 0LB       0.054700
     48 H21          1.9960     6.4120    -5.8350 h1         1 0LB       0.054700
     49 H22          4.8080     6.1470    -2.7420 h1         1 0LB       0.054700
     50 H23          4.2130     4.5420    -3.3720 h1         1 0LB       0.054700
     51 H24          3.0910     4.9790    -1.2740 h1         1 0LB       0.071950
     52 H25          2.6770     6.7000    -1.7390 h1         1 0LB       0.071950
     53 H26          5.6940     7.7950    -3.9550 ha         1 0LB       0.139500
     54 H27          7.5230     8.2890    -5.5500 ha         1 0LB       0.157000
     55 H28          5.6000     5.8270    -8.5530 ha         1 0LB       0.157000
     56 H29          3.7800     5.2970    -6.9740 ha         1 0LB       0.139500
     57 H242         0.5820     2.1360     0.1250 hn         1 0LB       0.483800
@<TRIPOS>BOND
     1     1     2 3   
     2     2     3 1   
     3     3     4 1   
     4     3     5 1   
     5     3     6 1   
     6     4     5 1   
     7     4    30 1   
     8     4    31 1   
     9     5    32 1   
    10     5    33 1   
    11     6     7 1   
    12     6    34 1   
    13     6    57 1   
    14     7     8 2   
    15     7     9 1   
    16     9    10 1   
    17     9    11 1   
    18     9    35 1   
    19    10    14 1   
    20    10    36 1   
    21    10    37 1   
    22    11    12 1   
    23    11    15 1   
    24    11    38 1   
    25    12    13 1   
    26    12    39 1   
    27    12    40 1   
    28    13    14 1   
    29    13    41 1   
    30    13    42 1   
    31    14    43 1   
    32    14    44 1   
    33    15    16 2   
    34    15    17 1   
    35    17    18 1   
    36    17    22 1   
    37    18    19 1   
    38    18    45 1   
    39    18    46 1   
    40    19    20 1   
    41    19    47 1   
    42    19    48 1   
    43    20    21 1   
    44    20    23 1   
    45    21    22 1   
    46    21    49 1   
    47    21    50 1   
    48    22    51 1   
    49    22    52 1   
    50    23    24 ar  
    51    23    29 ar  
    52    24    25 ar  
    53    24    53 1   
    54    25    26 ar  
    55    25    54 1   
    56    26    27 1   
    57    26    28 ar  
    58    28    29 ar  
    59    28    55 1   
    60    29    56 1   
@<TRIPOS>SUBSTRUCTURE
     1 0LB         1 TEMP              0 ****  ****    0 ROOT
