@<TRIPOS>MOLECULE
0LB
   56    59     1     0     0
SMALL
bcc


@<TRIPOS>ATOM
      1 N29         -1.2190    -2.1950    -0.7050 n1         1 0LB      -0.355800
      2 C28         -0.6800    -1.2450    -0.3920 c1         1 0LB       0.233700
      3 C25          0.0000     0.0000     0.0000 cx         1 0LB       0.057500
      4 C27          1.5300     0.0000     0.0000 cx         1 0LB      -0.068400
      5 C26          0.7650     0.0000     1.3250 cx         1 0LB      -0.068400
      6 N24         -0.6760     1.2400    -0.3910 ns         1 0LB      -0.150900
      7 C22         -2.0220     1.2970    -0.4060 c          1 0LB       0.587100
      8 O23         -2.6740     0.3220    -0.0980 o          1 0LB      -0.637100
      9 C18         -2.7190     2.5720    -0.8080 c3         1 0LB      -0.106700
     10 C16         -2.3120     3.6970     0.1460 c3         1 0LB      -0.021400
     11 C20         -4.2340     2.3690    -0.7420 c3         1 0LB      -0.114700
     12 C21         -4.9400     3.6640    -1.1500 c3         1 0LB      -0.018400
     13 C19         -4.5330     4.7880    -0.1960 c3         1 0LB      -0.025400
     14 C17         -3.0190     4.9910    -0.2620 c3         1 0LB      -0.022400
     15 C14         -4.6340     1.2610    -1.6810 c          1 0LB       0.616100
     16 O15         -4.0400     1.1080    -2.7280 o          1 0LB      -0.661100
     17 N8          -5.6520     0.4390    -1.3590 n          1 0LB      -0.139800
     18 C10         -6.4690     0.6820    -0.1600 c3         1 0LB       0.047000
     19 C12         -6.5300    -0.6120     0.6580 c3         1 0LB       0.114300
     20 N11         -6.9990    -1.7080    -0.2010 nh         1 0LB      -0.361000
     21 C9          -6.0590    -1.9640    -1.3000 c3         1 0LB       0.114300
     22 C7          -5.9820    -0.7210    -2.2010 c3         1 0LB       0.047000
     23 C2          -7.2260    -2.8680     0.5460 ca         1 0LB       0.015600
     24 C4          -7.6750    -4.0230    -0.0820 ca         1 0LB      -0.122000
     25 C6          -7.8980    -5.1680     0.6580 ca         1 0LB      -0.104000
     26 C5          -7.6740    -5.1640     2.0240 ca         1 0LB       0.075900
     27 F13         -7.8930    -6.2860     2.7460 f          1 0LB      -0.131900
     28 C3          -7.2260    -4.0150     2.6520 ca         1 0LB      -0.104000
     29 C1          -6.9960    -2.8690     1.9160 ca         1 0LB      -0.122000
     30 H3           1.9970    -0.9390    -0.2700 hc         1 0LB       0.056450
     31 H4           1.9970     0.9390    -0.2700 hc         1 0LB       0.056450
     32 H5           0.7660    -0.9390     1.8650 hc         1 0LB       0.056450
     33 H6           0.7660     0.9390     1.8650 hc         1 0LB       0.056450
     34 H7          -0.1390     2.0290    -0.6930 hn         1 0LB       0.181500
     35 H8          -2.4370     2.8390    -1.8190 hc         1 0LB       0.067700
     36 H9          -2.5980     3.4330     1.1560 hc         1 0LB       0.015200
     37 H10         -1.2390     3.8410     0.0950 hc         1 0LB       0.015200
     38 H11         -4.5170     2.1090     0.2710 hc         1 0LB       0.055700
     39 H12         -4.6520     3.9280    -2.1610 hc         1 0LB       0.024700
     40 H13         -6.0120     3.5200    -1.1010 hc         1 0LB       0.024700
     41 H14         -4.8170     4.5220     0.8160 hc         1 0LB       0.016200
     42 H15         -5.0320     5.7050    -0.4860 hc         1 0LB       0.016200
     43 H16         -2.7320     5.7870     0.4160 hc         1 0LB       0.017700
     44 H17         -2.7350     5.2530    -1.2740 hc         1 0LB       0.017700
     45 H18         -6.0160     1.4670     0.4350 h1         1 0LB       0.035200
     46 H19         -7.4700     0.9730    -0.4540 h1         1 0LB       0.035200
     47 H20         -5.5420    -0.8470     1.0350 h1         1 0LB       0.033200
     48 H21         -7.2170    -0.4830     1.4860 h1         1 0LB       0.033200
     49 H22         -5.0780    -2.1760    -0.8930 h1         1 0LB       0.033200
     50 H23         -6.4060    -2.8100    -1.8810 h1         1 0LB       0.033200
     51 H24         -6.9380    -0.5610    -2.6830 h1         1 0LB       0.035200
     52 H25         -5.2090    -0.8600    -2.9470 h1         1 0LB       0.035200
     53 H26         -7.8500    -4.0250    -1.1510 ha         1 0LB       0.121500
     54 H27         -8.2480    -6.0690     0.1690 ha         1 0LB       0.116500
     55 H28         -7.0480    -4.0160     3.7210 ha         1 0LB       0.116500
     56 H29         -6.6450    -1.9690     2.4070 ha         1 0LB       0.121500
@<TRIPOS>BOND
     1     1     2 3   
     2     2     3 1   
     3     3     4 1   
     4     3     5 1   
     5     3     6 1   
     6     4     5 1   
     7     4    30 1   
     8     4    31 1   
     9     5    32 1   
    10     5    33 1   
    11     6     7 1   
    12     6    34 1   
    13     7     8 2   
    14     7     9 1   
    15     9    10 1   
    16     9    11 1   
    17     9    35 1   
    18    10    14 1   
    19    10    36 1   
    20    10    37 1   
    21    11    12 1   
    22    11    15 1   
    23    11    38 1   
    24    12    13 1   
    25    12    39 1   
    26    12    40 1   
    27    13    14 1   
    28    13    41 1   
    29    13    42 1   
    30    14    43 1   
    31    14    44 1   
    32    15    16 2   
    33    15    17 1   
    34    17    18 1   
    35    17    22 1   
    36    18    19 1   
    37    18    45 1   
    38    18    46 1   
    39    19    20 1   
    40    19    47 1   
    41    19    48 1   
    42    20    21 1   
    43    20    23 1   
    44    21    22 1   
    45    21    49 1   
    46    21    50 1   
    47    22    51 1   
    48    22    52 1   
    49    23    24 ar  
    50    23    29 ar  
    51    24    25 ar  
    52    24    53 1   
    53    25    26 ar  
    54    25    54 1   
    55    26    27 1   
    56    26    28 ar  
    57    28    29 ar  
    58    28    55 1   
    59    29    56 1   
@<TRIPOS>SUBSTRUCTURE
     1 0LB         1 TEMP              0 ****  ****    0 ROOT
