@<TRIPOS>MOLECULE
molecule
   55    59     1     0     0
SMALL
bcc


@<TRIPOS>ATOM
      1 O24          0.0000     0.0000     0.0000 o          1 0LC      -0.589100
      2 C23          1.2130     0.0000     0.0000 c          1 0LC       0.669100
      3 N25          1.8850     0.0060    -1.1680 ns         1 0LC      -0.552900
      4 C26          1.1530     0.0130    -2.4360 cx         1 0LC       0.119500
      5 C29         -0.1130    -0.7380    -2.4420 c1         1 0LC       0.257700
      6 N30         -1.1000    -1.3010    -2.4440 n1         1 0LC      -0.348800
      7 C28          1.9740     0.0210    -3.7270 cx         1 0LC      -0.121900
      8 C27          1.2250     1.2820    -3.2880 cx         1 0LC      -0.121900
      9 C18          1.9660     0.0000     1.3050 c3         1 0LC      -0.125700
     10 C19          2.8460    -1.2480     1.3850 c3         1 0LC      -0.076400
     11 C20          3.6120    -1.2490     2.7100 c3         1 0LC      -0.080400
     12 C22          2.6180    -1.2490     3.8730 c3         1 0LC      -0.082400
     13 C21          1.7380    -0.0010     3.7930 c3         1 0LC      -0.073400
     14 C17          0.9730    -0.0010     2.4680 c3         1 0LC      -0.126700
     15 C15          0.1060     1.2290     2.3880 c          1 0LC       0.689100
     16 O16          0.5700     2.2730     1.9790 o          1 0LC      -0.618100
     17 N10         -1.1850     1.1700     2.7740 n          1 0LC      -0.480800
     18 C12         -1.7360    -0.0480     3.3850 c3         1 0LC       0.108000
     19 C13         -2.1510     0.2600     4.8290 c3         1 0LC      -0.038200
     20 C1          -2.9150     1.5620     4.8550 cc         1 0LC      -0.051300
     21 C11         -2.0810     2.3280     2.5990 c3         1 0LC       0.189200
     22 C2          -2.8810     2.4790     3.8640 cd         1 0LC      -0.165400
     23 C5          -3.7330     3.5790     4.2670 ca         1 0LC      -0.070800
     24 C7          -4.0750     4.7880     3.6550 ca         1 0LC      -0.117000
     25 C6          -4.9380     5.6180     4.3510 ca         1 0LC       0.102900
     26 F14         -5.2980     6.7980     3.8010 f          1 0LC      -0.146900
     27 C8          -5.4420     5.2720     5.5950 ca         1 0LC      -0.150000
     28 C9          -5.1160     4.0800     6.2180 ca         1 0LC      -0.120000
     29 C4          -4.2490     3.2250     5.5400 ca         1 0LC      -0.052200
     30 N3          -3.7380     1.9990     5.8590 na         1 0LC      -0.171400
     31 H1           2.8860     0.0200    -1.1680 hn         1 0LC       0.325500
     32 H4           3.0500     0.0480    -3.5960 hc         1 0LC       0.088950
     33 H5           1.5390    -0.5140    -4.5610 hc         1 0LC       0.088950
     34 H6           0.3320     1.5160    -3.8550 hc         1 0LC       0.088950
     35 H7           1.8430     2.0780    -2.8890 hc         1 0LC       0.088950
     36 H8           2.5900     0.8830     1.3670 hc         1 0LC       0.092700
     37 H9           3.5510    -1.2450     0.5630 hc         1 0LC       0.047200
     38 H10          2.2230    -2.1320     1.3300 hc         1 0LC       0.047200
     39 H11          4.2320    -2.1350     2.7670 hc         1 0LC       0.046700
     40 H12          4.2330    -0.3630     2.7680 hc         1 0LC       0.046700
     41 H13          1.9950    -2.1340     3.8130 hc         1 0LC       0.045200
     42 H14          3.1610    -1.2470     4.8100 hc         1 0LC       0.045200
     43 H15          2.3620     0.8830     3.8480 hc         1 0LC       0.053700
     44 H16          1.0330    -0.0050     4.6150 hc         1 0LC       0.053700
     45 H17          0.3540    -0.8880     2.4100 hc         1 0LC       0.074700
     46 H18         -0.9810    -0.8260     3.3840 h1         1 0LC       0.061200
     47 H19         -2.6020    -0.3750     2.8220 h1         1 0LC       0.061200
     48 H20         -2.7830    -0.5380     5.2000 hc         1 0LC       0.055700
     49 H21         -1.2660     0.3470     5.4480 hc         1 0LC       0.055700
     50 H22         -2.7470     2.1520     1.7630 h1         1 0LC       0.073700
     51 H23         -1.4940     3.2220     2.4270 h1         1 0LC       0.073700
     52 H24         -3.9560     4.9060     2.5840 ha         1 0LC       0.154000
     53 H25         -6.1140     5.9580     6.0970 ha         1 0LC       0.142000
     54 H26         -5.5180     3.8220     7.1910 ha         1 0LC       0.137000
     55 H27         -3.9360     1.4950     6.7010 hn         1 0LC       0.296700
@<TRIPOS>BOND
     1    28    27 ar
     2    28    29 ar
     3    27    25 ar
     4     6     5 3
     5    29    30 1
     6    29    23 ar
     7    25    26 1
     8    25    24 ar
     9    30    20 1
    10     8     7 1
    11     8     4 1
    12     5     4 1
    13    23    24 ar
    14    23    22 1
    15     1     2 2
    16     7     4 1
    17     4     3 1
    18    20    22 2
    19    20    19 1
    20    22    21 1
    21    19    18 1
    22     2     3 1
    23     2     9 1
    24    21    17 1
    25    18    17 1
    26    10     9 1
    27    10    11 1
    28     9    14 1
    29    17    15 1
    30    14    15 1
    31    14    13 1
    32    15    16 2
    33    11    12 1
    34    13    12 1
    35     3    31 1
    36     7    32 1
    37     7    33 1
    38     8    34 1
    39     8    35 1
    40     9    36 1
    41    10    37 1
    42    10    38 1
    43    11    39 1
    44    11    40 1
    45    12    41 1
    46    12    42 1
    47    13    43 1
    48    13    44 1
    49    14    45 1
    50    18    46 1
    51    18    47 1
    52    19    48 1
    53    19    49 1
    54    21    50 1
    55    21    51 1
    56    24    52 1
    57    27    53 1
    58    28    54 1
    59    30    55 1
@<TRIPOS>SUBSTRUCTURE
     1 0LC         1 TEMP              0 ****  ****    0 ROOT
