@<TRIPOS>MOLECULE
0LC
   56    60     1     0     0
SMALL
bcc


@<TRIPOS>ATOM
      1 O24         -0.3180    -0.1030    -0.7290 o          1 0LC      -0.425100
      2 C23          0.8450     0.1720    -0.4780 c          1 0LC       0.572100
      3 N25          1.6310     0.7580    -1.6430 ny         1 0LC      -0.641800
      4 C26          2.3090    -0.2760    -2.4580 cx         1 0LC       0.076300
      5 C29          3.5470    -0.7290    -1.8850 c1         1 0LC       0.178700
      6 N30          4.5550    -1.1160    -1.4560 n1         1 0LC      -0.238800
      7 C28          2.2210    -0.2020    -3.9850 cx         1 0LC      -0.074900
      8 C27          1.4790    -1.2760    -3.2630 cx         1 0LC      -0.074900
      9 C18          1.5840     0.0260     0.8320 c3         1 0LC      -0.106700
     10 C19          1.4050    -1.4100     1.3250 c3         1 0LC      -0.080400
     11 C20          2.1160    -1.6060     2.6470 c3         1 0LC      -0.082400
     12 C22          1.6410    -0.6050     3.6780 c3         1 0LC      -0.088400
     13 C21          1.7860     0.8160     3.1760 c3         1 0LC      -0.078400
     14 C17          1.0290     1.0180     1.8670 c3         1 0LC      -0.126700
     15 C15          1.1820     2.4580     1.3750 c          1 0LC       0.668100
     16 O16          1.8030     2.6670     0.2950 o          1 0LC      -0.728100
     17 N10          0.7000     3.5100     2.1050 n          1 0LC      -0.420800
     18 C12          0.9070     4.8770     1.6500 c3         1 0LC       0.083000
     19 C13         -0.3690     5.6120     1.2090 c3         1 0LC      -0.043200
     20 C1          -1.4660     5.3060     2.1520 cc         1 0LC      -0.041300
     21 C11         -0.2380     3.3600     3.2130 c3         1 0LC       0.167200
     22 C2          -1.4120     4.2480     3.0710 cd         1 0LC      -0.198400
     23 C5          -2.6530     4.2410     3.8000 ca         1 0LC      -0.050800
     24 C7          -3.1780     3.4460     4.8180 ca         1 0LC      -0.139000
     25 C6          -4.4570     3.7440     5.2960 ca         1 0LC       0.118900
     26 F14         -4.9950     2.9880     6.2840 f          1 0LC      -0.134900
     27 C8          -5.2160     4.8260     4.7730 ca         1 0LC      -0.140000
     28 C9          -4.7150     5.6250     3.7640 ca         1 0LC      -0.107000
     29 C4          -3.4320     5.3400     3.2680 ca         1 0LC      -0.058200
     30 N3          -2.6890     5.9640     2.2560 na         1 0LC      -0.165400
     31 H1           0.9840     1.2800    -2.2480 hn         1 0LC       0.482800
     32 H4           3.1370    -0.4540    -4.5580 hc         1 0LC       0.119950
     33 H5           1.6610     0.6290    -4.4540 hc         1 0LC       0.119950
     34 H6           0.3740    -1.2280    -3.1940 hc         1 0LC       0.119950
     35 H7           1.8430    -2.3220    -3.3070 hc         1 0LC       0.119950
     36 H8           2.6830     0.2370     0.6960 hc         1 0LC       0.103700
     37 H9           1.8210    -2.1210     0.5650 hc         1 0LC       0.066700
     38 H10          0.3100    -1.6310     1.4410 hc         1 0LC       0.066700
     39 H11          3.2240    -1.5030     2.5010 hc         1 0LC       0.067200
     40 H12          1.9210    -2.6480     3.0140 hc         1 0LC       0.067200
     41 H13          0.5670    -0.8080     3.9340 hc         1 0LC       0.065700
     42 H14          2.2390    -0.7250     4.6190 hc         1 0LC       0.065700
     43 H15          1.3950     1.5240     3.9540 hc         1 0LC       0.069200
     44 H16          2.8710     1.0560     3.0190 hc         1 0LC       0.069200
     45 H17         -0.0650     0.7920     2.0190 hc         1 0LC       0.099700
     46 H18          1.3620     5.4390     2.5170 h1         1 0LC       0.080700
     47 H19          1.6410     4.8820     0.7950 h1         1 0LC       0.080700
     48 H20         -0.6620     5.2950     0.1720 hc         1 0LC       0.070700
     49 H21         -0.1450     6.7120     1.1790 hc         1 0LC       0.070700
     50 H22         -0.5900     2.2920     3.2960 h1         1 0LC       0.064700
     51 H23          0.3170     3.6190     4.1650 h1         1 0LC       0.064700
     52 H24         -2.6040     2.6100     5.2390 ha         1 0LC       0.147000
     53 H25         -6.2170     5.0170     5.1910 ha         1 0LC       0.160000
     54 H26         -5.3040     6.4620     3.3630 ha         1 0LC       0.148000
     55 H27         -2.9570     6.7750     1.7640 hn         1 0LC       0.309700
     56 H252         2.3280     1.4250    -1.2580 hn         1 0LC       0.482800
@<TRIPOS>BOND
     1     1     2 2   
     2     2     3 1   
     3     2     9 1   
     4     3     4 1   
     5     3    31 1   
     6     3    56 1   
     7     4     5 1   
     8     4     7 1   
     9     4     8 1   
    10     5     6 3   
    11     7     8 1   
    12     7    32 1   
    13     7    33 1   
    14     8    34 1   
    15     8    35 1   
    16     9    10 1   
    17     9    14 1   
    18     9    36 1   
    19    10    11 1   
    20    10    37 1   
    21    10    38 1   
    22    11    12 1   
    23    11    39 1   
    24    11    40 1   
    25    12    13 1   
    26    12    41 1   
    27    12    42 1   
    28    13    14 1   
    29    13    43 1   
    30    13    44 1   
    31    14    15 1   
    32    14    45 1   
    33    15    16 2   
    34    15    17 1   
    35    17    18 1   
    36    17    21 1   
    37    18    19 1   
    38    18    46 1   
    39    18    47 1   
    40    19    20 1   
    41    19    48 1   
    42    19    49 1   
    43    20    22 2   
    44    20    30 1   
    45    21    22 1   
    46    21    50 1   
    47    21    51 1   
    48    22    23 1   
    49    23    24 ar  
    50    23    29 ar  
    51    24    25 ar  
    52    24    52 1   
    53    25    26 1   
    54    25    27 ar  
    55    27    28 ar  
    56    27    53 1   
    57    28    29 ar  
    58    28    54 1   
    59    29    30 1   
    60    30    55 1   
@<TRIPOS>SUBSTRUCTURE
     1 0LC         1 TEMP              0 ****  ****    0 ROOT
