@<TRIPOS>MOLECULE
0LD
   52    55     1     0     0
SMALL
bcc


@<TRIPOS>ATOM
      1 C33          0.0970    -0.2500    -0.0360 ca         1 0LD      -0.142500
      2 C32          1.4570    -0.0400    -0.2460 ca         1 0LD      -0.118000
      3 C4          -5.0920     0.3860     3.0910 c1         1 0LD      -0.036800
      4 C13         -8.6260     1.3900     6.3680 c3         1 0LD       0.230700
      5 C20         -3.9500     0.2500     2.2720 cc         1 0LD      -0.373300
      6 C21        -10.9790     1.7710     5.7140 ca         1 0LD       0.347200
      7 C18         -9.3920     1.6750     3.9010 ca         1 0LD      -0.097300
      8 C16         -2.6000     0.5590     2.4370 cc         1 0LD       0.246500
      9 C19         -9.6360     1.6130     5.2760 ca         1 0LD      -0.142600
     10 C31          2.1700     0.8670     0.5360 ca         1 0LD      -0.153000
     11 C30          1.5090     1.5800     1.5350 ca         1 0LD      -0.118000
     12 C29          0.1490     1.3950     1.7600 ca         1 0LD      -0.142500
     13 C28         -0.5750     0.4660     0.9800 ca         1 0LD       0.047800
     14 C17        -10.5030     1.8770     3.0450 ca         1 0LD       0.022800
     15 C15        -11.8080     2.0230     3.5760 ca         1 0LD       0.303600
     16 C22         -4.0340    -0.2570     0.8790 cc         1 0LD       0.373200
     17 C3          -6.2860     0.0360     2.5140 ce         1 0LD      -0.354300
     18 C2          -6.4500    -0.4630     1.1470 c          1 0LD       0.646300
     19 C1         -12.9620     2.2440     2.6540 c3         1 0LD      -0.144400
     20 C14         -8.0270     1.5950     3.2930 c3         1 0LD       0.137100
     21 N12        -12.0290     1.9700     4.9140 nb         1 0LD      -0.637000
     22 N10         -2.8070    -0.2260     0.2770 nd         1 0LD      -0.566100
     23 N11         -1.9570     0.2600     1.2240 na         1 0LD       0.061900
     24 N9          -5.2520    -0.7920     0.4050 n          1 0LD      -0.178800
     25 O6          -6.3850     3.3690     5.2820 o          1 0LD      -0.830000
     26 O27         -4.9260     1.4650     6.0400 oh         1 0LD      -0.791400
     27 O7          -6.4120     2.6160     7.7980 o          1 0LD      -0.830000
     28 O26        -10.2400     1.8970     1.6960 oh         1 0LD      -0.488100
     29 O25         -5.3910    -0.7770    -0.9240 oh         1 0LD      -0.409100
     30 O24         -7.3350     1.1790     5.9270 os         1 0LD      -0.595200
     31 P23         -6.2120     2.3720     6.3600 p5         1 0LD       1.432800
     32 O5          -7.5430    -0.7510     0.6100 o          1 0LD      -0.654100
     33 N8          -7.5070     0.1940     3.2940 ny         1 0LD      -0.573800
     34 H1          -0.4450    -0.9710    -0.6670 ha         1 0LD       0.153500
     35 H2           1.9710    -0.6020    -1.0400 ha         1 0LD       0.129500
     36 H3          -4.8720     1.1690     5.1230 ho         1 0LD       0.482000
     37 H4          -8.9640     0.4720     6.9380 h1         1 0LD       0.048200
     38 H5          -8.6570     2.2750     7.0730 h1         1 0LD       0.048200
     39 H6         -11.2040     1.7380     6.7960 h4         1 0LD       0.024100
     40 H7          -2.0760     0.9480     3.3120 h4         1 0LD       0.063800
     41 H8           3.2440     1.0220     0.3640 ha         1 0LD       0.126000
     42 H9           2.0630     2.3030     2.1530 ha         1 0LD       0.129500
     43 H10         -0.3520     1.9850     2.5430 ha         1 0LD       0.153500
     44 H11        -12.8220     3.2050     2.0980 hc         1 0LD       0.046033
     45 H12        -13.0230     1.4050     1.9170 hc         1 0LD       0.046033
     46 H13        -13.9320     2.2990     3.2050 hc         1 0LD       0.046033
     47 H14         -8.0410     1.9560     2.2270 hx         1 0LD       0.147700
     48 H15         -7.2940     2.2450     3.8930 hx         1 0LD       0.147700
     49 H16         -8.2230    -0.4310     2.9160 hn         1 0LD       0.447300
     50 H19        -11.0350     2.1950     1.2320 ho         1 0LD       0.420000
     51 H20         -5.9180    -1.5760    -1.1290 ho         1 0LD       0.422000
     52 H82         -7.2880    -0.0650     4.2720 hn         1 0LD       0.447300
@<TRIPOS>BOND
     1     1     2 ar  
     2     1    13 ar  
     3     1    34 1   
     4     2    10 ar  
     5     2    35 1   
     6     3     5 2   
     7     3    17 2   
     8     4     9 1   
     9     4    30 1   
    10     4    37 1   
    11     4    38 1   
    12     5     8 1   
    13     5    16 1   
    14     6     9 ar  
    15     6    21 ar  
    16     6    39 1   
    17     7     9 ar  
    18     7    14 ar  
    19     7    20 1   
    20     8    23 2   
    21     8    40 1   
    22    10    11 ar  
    23    10    41 1   
    24    11    12 ar  
    25    11    42 1   
    26    12    13 ar  
    27    12    43 1   
    28    13    23 1   
    29    14    15 ar  
    30    14    28 1   
    31    15    19 1   
    32    15    21 ar  
    33    16    22 2   
    34    16    24 1   
    35    17    18 1   
    36    17    33 1   
    37    18    24 1   
    38    18    32 2   
    39    19    44 1   
    40    19    45 1   
    41    19    46 1   
    42    20    33 1   
    43    20    47 1   
    44    20    48 1   
    45    22    23 1   
    46    24    29 1   
    47    25    31 1   
    48    26    31 1   
    49    26    36 1   
    50    27    31 1   
    51    28    50 1   
    52    29    51 1   
    53    30    31 1   
    54    33    49 1   
    55    33    52 1   
@<TRIPOS>SUBSTRUCTURE
     1 0LD         1 TEMP              0 ****  ****    0 ROOT
