@<TRIPOS>MOLECULE
0LD
   51    54     1     0     0
SMALL
bcc


@<TRIPOS>ATOM
      1 C33          0.0000     0.0000     0.0000 ca         1 0LD      -0.104500
      2 C32          1.3820     0.0000     0.0000 ca         1 0LD      -0.092500
      3 C4          -5.4700    -0.0010     2.5900 cc         1 0LD      -0.213200
      4 C13        -10.1570     2.4180     2.6900 c3         1 0LD       0.313700
      5 C20         -4.2760     0.0010     1.7430 cc         1 0LD      -0.213100
      6 C21        -11.9470     1.1190     3.8720 ca         1 0LD       0.408200
      7 C18        -10.2500    -0.0900     2.7070 ca         1 0LD      -0.122300
      8 C16         -2.9190     0.0030     1.9920 cd         1 0LD      -0.300300
      9 C19        -10.8000     1.1200     3.1000 ca         1 0LD      -0.139600
     10 C31          2.0750     0.0000     1.1960 ca         1 0LD      -0.127000
     11 C30          1.3880    -0.0000     2.3970 ca         1 0LD      -0.092500
     12 C29          0.0070    -0.0000     2.4040 ca         1 0LD      -0.104500
     13 C28         -0.6930     0.0000     1.2050 ca         1 0LD      -0.059200
     14 C17        -10.8780    -1.2650     3.1100 ca         1 0LD      -0.005200
     15 C15        -12.0200    -1.1830     3.8930 ca         1 0LD       0.276600
     16 C22         -4.4360     0.0010     0.2870 cc         1 0LD       0.304200
     17 C3          -6.6910    -0.0080     1.9910 cd         1 0LD      -0.021200
     18 C2          -6.7990    -0.0090     0.5360 c          1 0LD       0.613700
     19 C1         -12.7120    -2.4460     4.3360 c3         1 0LD      -0.022400
     20 C14         -9.1700    -0.0240     2.1350 c3         1 0LD       0.132100
     21 N12        -12.5150    -0.0120     4.2410 nb         1 0LD      -0.587000
     22 N10         -3.2330     0.0020    -0.2300 nd         1 0LD      -0.633800
     23 N11         -2.2890     0.0030     0.8030 na         1 0LD       0.524300
     24 N9          -5.7120    -0.0000    -0.2550 n          1 0LD       0.150200
     25 O6         -11.6490     6.0070     3.5960 o          1 0LD      -0.733167
     26 O27        -10.3940     5.3080     1.5210 o          1 0LD      -0.733167
     27 O7          -9.1030     5.3600     3.6890 o          1 0LD      -0.733167
     28 O26        -10.3740    -2.4740     2.7490 oh         1 0LD      -0.503100
     29 O25         -5.8720    -0.0010    -1.6610 oh         1 0LD      -0.455100
     30 O24        -10.9120     3.5120     3.2160 os         1 0LD      -0.473200
     31 P23        -10.5120     5.0510     2.9740 p5         1 0LD       0.671900
     32 H1          -0.5420     0.0000    -0.9380 ha         1 0LD       0.124000
     33 H2           1.9220     0.0000    -0.9390 ha         1 0LD       0.099500
     34 H3          -5.3830    -0.0010     3.6700 ha         1 0LD       0.120000
     35 H4          -9.1460     2.4590     3.0760 h1         1 0LD       0.001200
     36 H5         -10.1330     2.4840     1.6080 h1         1 0LD       0.001200
     37 H6         -12.3850     2.0620     4.1780 h4         1 0LD       0.040100
     38 H7          -2.4500     0.1170     2.9610 h4         1 0LD       0.151000
     39 H8           3.1580    -0.0000     1.1920 ha         1 0LD       0.097000
     40 H9           1.9350    -0.0000     3.3320 ha         1 0LD       0.099500
     41 H10         -0.5300    -0.0000     3.3450 ha         1 0LD       0.124000
     42 H11        -13.5080    -2.1980     5.0270 hc         1 0LD      -0.003967
     43 H12        -11.9970    -3.0960     4.8260 hc         1 0LD      -0.003967
     44 H13        -13.1270    -2.9520     3.4730 hc         1 0LD      -0.003967
     45 H14         -9.1040     0.9120     1.5950 h1         1 0LD       0.067200
     46 H15         -9.0790    -0.8500     1.4390 h1         1 0LD       0.067200
     47 H16         -7.7810    -0.0630     3.7740 hn         1 0LD       0.280800
     48 H19        -10.8690    -2.8180     2.0240 ho         1 0LD       0.388000
     49 H20         -5.8040     0.8820    -1.9860 ho         1 0LD       0.405000
     50 N8          -7.8520    -0.0170     2.7760 nu         1 0LD      -0.321000
     51 O5          -7.9050    -0.0150     0.0230 o          1 0LD      -0.656500
@<TRIPOS>BOND
     1     1     2 ar  
     2     1    13 ar  
     3     1    32 1   
     4     2    10 ar  
     5     2    33 1   
     6     3     5 1   
     7     3    17 2   
     8     3    34 1   
     9     4     9 1   
    10     4    30 1   
    11     4    35 1   
    12     4    36 1   
    13     5     8 2   
    14     5    16 1   
    15     6     9 ar  
    16     6    21 ar  
    17     6    37 1   
    18     7     9 ar  
    19     7    14 ar  
    20     7    20 1   
    21     8    23 1   
    22     8    38 1   
    23    10    11 ar  
    24    10    39 1   
    25    11    12 ar  
    26    11    40 1   
    27    12    13 ar  
    28    12    41 1   
    29    13    23 1   
    30    14    15 ar  
    31    14    28 1   
    32    15    19 1   
    33    15    21 ar  
    34    16    22 2   
    35    16    24 1   
    36    17    18 1   
    37    17    50 1   
    38    18    24 1   
    39    18    51 2   
    40    19    42 1   
    41    19    43 1   
    42    19    44 1   
    43    20    45 1   
    44    20    46 1   
    45    20    50 1   
    46    22    23 1   
    47    24    29 1   
    48    25    31 1   
    49    26    31 1   
    50    27    31 1   
    51    28    48 1   
    52    29    49 1   
    53    30    31 1   
    54    47    50 1   
@<TRIPOS>SUBSTRUCTURE
     1 0LD         1 TEMP              0 ****  ****    0 ROOT
