@<TRIPOS>MOLECULE
molecule
   51    54     1     0     0
SMALL
bcc


@<TRIPOS>ATOM
      1 C33          0.0000     0.0000     0.0000 ca         1 0LD      -0.126500
      2 C32          1.3820     0.0000     0.0000 ca         1 0LD      -0.117500
      3 C4          -5.4700    -0.0010     2.5900 cc         1 0LD      -0.205200
      4 C13        -10.1570     2.4180     2.6900 c3         1 0LD       0.241700
      5 C20         -4.2760     0.0010     1.7430 cd         1 0LD      -0.236100
      6 C21        -11.9470     1.1190     3.8720 ca         1 0LD       0.437200
      7 C18        -10.2500    -0.0900     2.7070 ca         1 0LD      -0.108300
      8 C16         -2.9190     0.0030     1.9920 cc         1 0LD      -0.159300
      9 C19        -10.8000     1.1200     3.1000 ca         1 0LD      -0.135600
     10 C31          2.0750     0.0000     1.1960 ca         1 0LD      -0.144000
     11 C30          1.3880    -0.0000     2.3970 ca         1 0LD      -0.117500
     12 C29          0.0070    -0.0000     2.4040 ca         1 0LD      -0.126500
     13 C28         -0.6930     0.0000     1.2050 ca         1 0LD       0.096800
     14 C17        -10.8780    -1.2650     3.1100 ca         1 0LD      -0.021200
     15 C15        -12.0200    -1.1830     3.8930 ca         1 0LD       0.345600
     16 C22         -4.4360     0.0010     0.2870 cd         1 0LD       0.444200
     17 C3          -6.6910    -0.0080     1.9910 cd         1 0LD       0.134800
     18 C2          -6.7990    -0.0090     0.5360 c          1 0LD       0.722700
     19 C1         -12.7120    -2.4460     4.3360 c3         1 0LD      -0.127400
     20 C14         -9.1700    -0.0240     2.1350 c3         1 0LD       0.250100
     21 N12        -12.5150    -0.0120     4.2410 nb         1 0LD      -0.693000
     22 N10         -3.2330     0.0020    -0.2300 nc         1 0LD      -0.494800
     23 N11         -2.2890     0.0030     0.8030 na         1 0LD       0.096300
     24 N9          -5.7120    -0.0000    -0.2550 n          1 0LD      -0.282800
     25 O6         -11.6490     6.0070     3.5960 o          1 0LD      -0.899833
     26 O27        -10.3940     5.3080     1.5210 o          1 0LD      -0.899833
     27 O7          -9.1030     5.3600     3.6890 o          1 0LD      -0.899833
     28 O26        -10.3740    -2.4740     2.7490 oh         1 0LD      -0.527100
     29 O25         -5.8720    -0.0010    -1.6610 oh         1 0LD      -0.363100
     30 O24        -10.9120     3.5120     3.2160 os         1 0LD      -0.575200
     31 P23        -10.5120     5.0510     2.9740 p5         1 0LD       1.162900
     32 H1          -0.5420     0.0000    -0.9380 ha         1 0LD       0.157000
     33 H2           1.9220     0.0000    -0.9390 ha         1 0LD       0.135000
     34 H3          -5.3830    -0.0010     3.6700 ha         1 0LD       0.141000
     35 H4          -9.1460     2.4590     3.0760 h1         1 0LD       0.046200
     36 H5         -10.1330     2.4840     1.6080 h1         1 0LD       0.046200
     37 H6         -12.3850     2.0620     4.1780 h4         1 0LD       0.085100
     38 H7          -2.4500     0.1170     2.9610 h4         1 0LD       0.169000
     39 H8           3.1580    -0.0000     1.1920 ha         1 0LD       0.127000
     40 H9           1.9350    -0.0000     3.3320 ha         1 0LD       0.135000
     41 H10         -0.5300    -0.0000     3.3450 ha         1 0LD       0.157000
     42 H11        -13.5080    -2.1980     5.0270 hc         1 0LD       0.034367
     43 H12        -11.9970    -3.0960     4.8260 hc         1 0LD       0.034367
     44 H13        -13.1270    -2.9520     3.4730 hc         1 0LD       0.034367
     45 H14         -9.1040     0.9120     1.5950 h1         1 0LD       0.070700
     46 H15         -9.0790    -0.8500     1.4390 h1         1 0LD       0.070700
     47 H16         -7.7810    -0.0630     3.7740 hn         1 0LD       0.440800
     48 H19        -10.8690    -2.8180     2.0240 ho         1 0LD       0.404000
     49 H20         -5.8040     0.8820    -1.9860 ho         1 0LD       0.411000
     50 N8          -7.8520    -0.0170     2.7760 nu         1 0LD      -0.771000
     51 O5          -7.9050    -0.0150     0.0230 o          1 0LD      -0.595500
@<TRIPOS>BOND
     1    29    24 1   
     2    51    18 2   
     3    24    18 1   
     4    24    16 1   
     5    18    17 1   
     6    19    15 1   
     7    22    16 2   
     8    22    23 1   
     9    16     5 1   
    10    28    14 1   
    11    17    50 1   
    12    17     3 2   
    13    50    20 1   
    14     1     2 ar  
    15     1    13 ar  
    16    15    14 ar  
    17    15    21 ar  
    18    14     7 ar  
    19    23    13 1   
    20    23     8 1   
    21     5     3 1   
    22     5     8 2   
    23     2    10 ar  
    24    13    12 ar  
    25    21     6 ar  
    26     7    20 1   
    27     7     9 ar  
    28    10    11 ar  
    29    12    11 ar  
    30     6     9 ar  
    31     9     4 1   
    32     4    30 1   
    33    30    31 1   
    34    31    26 1   
    35    31    27 1   
    36    31    25 1   
    37     1    32 1   
    38     2    33 1   
    39     3    34 1   
    40     4    35 1   
    41     4    36 1   
    42     6    37 1   
    43     8    38 1   
    44    10    39 1   
    45    11    40 1   
    46    12    41 1   
    47    19    42 1   
    48    19    43 1   
    49    19    44 1   
    50    20    45 1   
    51    20    46 1   
    52    50    47 1   
    53    28    48 1   
    54    29    49 1   
@<TRIPOS>SUBSTRUCTURE
     1 0LD         1 TEMP              0 ****  ****    0 ROOT
