@<TRIPOS>MOLECULE
0LH
   25    26     1     0     0
SMALL
bcc


@<TRIPOS>ATOM
      1 CAG         -0.0400     0.4180    -0.1020 cc         1 0LH      -0.118100
      2 CAF          1.3360     0.2780    -0.1330 cd         1 0LH      -0.139200
      3 CAJ          1.7810     0.0240     1.2260 ca         1 0LH      -0.087800
      4 CAD          3.0310    -0.1800     1.8070 ca         1 0LH      -0.058000
      5 CAB          3.1050    -0.3820     3.1810 ca         1 0LH      -0.139000
      6 CAC          1.9540    -0.3600     3.9850 ca         1 0LH      -0.089000
      7 CAE          0.6910    -0.1530     3.4420 ca         1 0LH      -0.211000
      8 CAK          0.6000     0.0310     2.0550 ca         1 0LH      -0.103200
      9 NAL         -0.5120     0.3180     1.2310 na         1 0LH      -0.103400
     10 CAI         -1.8540     0.0240     1.5950 c3         1 0LH       0.027300
     11 CAH         -2.2120    -1.4850     1.6280 c3         1 0LH       0.057800
     12 NAA         -1.2670    -2.2850     2.4560 nz         1 0LH      -0.836600
     13 H1          -0.7380     0.6410    -0.9130 h4         1 0LH       0.184000
     14 H2           1.9840     0.3620    -1.0040 ha         1 0LH       0.183000
     15 H3           3.9410    -0.1680     1.1870 ha         1 0LH       0.161000
     16 H4           4.0870    -0.5410     3.6560 ha         1 0LH       0.158000
     17 H5           2.0590    -0.4910     5.0740 ha         1 0LH       0.151000
     18 H6          -0.1860    -0.0450     4.0960 ha         1 0LH       0.126000
     19 H7          -2.5570     0.5000     0.8500 h1         1 0LH       0.103700
     20 H8          -2.0580     0.4680     2.6130 h1         1 0LH       0.103700
     21 H9          -3.2480    -1.5970     2.0580 hx         1 0LH       0.115700
     22 H10         -2.1990    -1.9120     0.5840 hx         1 0LH       0.115700
     23 H11         -1.2000    -1.8850     3.4000 hn         1 0LH       0.466133
     24 H12         -1.5820    -3.2570     2.5160 hn         1 0LH       0.466133
     25 HAA3        -0.3220    -2.2580     2.0430 hn         1 0LH       0.466133
@<TRIPOS>BOND
     1     1     2 2   
     2     1     9 1   
     3     1    13 1   
     4     2     3 1   
     5     2    14 1   
     6     3     4 ar  
     7     3     8 ar  
     8     4     5 ar  
     9     4    15 1   
    10     5     6 ar  
    11     5    16 1   
    12     6     7 ar  
    13     6    17 1   
    14     7     8 ar  
    15     7    18 1   
    16     8     9 1   
    17     9    10 1   
    18    10    11 1   
    19    10    19 1   
    20    10    20 1   
    21    11    12 1   
    22    11    21 1   
    23    11    22 1   
    24    12    23 1   
    25    12    24 1   
    26    12    25 1   
@<TRIPOS>SUBSTRUCTURE
     1 0LH         1 TEMP              0 ****  ****    0 ROOT
