@<TRIPOS>MOLECULE
molecule
   25    26     1     0     0
SMALL
bcc


@<TRIPOS>ATOM
      1 CAG          0.0000     0.0000     0.0000 cc         1 0LH      -0.130100
      2 CAF          1.3430     0.0000     0.0000 cd         1 0LH      -0.141200
      3 CAJ          1.7700     0.0000     1.4010 ca         1 0LH      -0.089800
      4 CAD          3.0150     0.0010     2.0360 ca         1 0LH      -0.060000
      5 CAB          3.0790     0.0010     3.4010 ca         1 0LH      -0.151000
      6 CAC          1.9180     0.0010     4.1620 ca         1 0LH      -0.098000
      7 CAE          0.6810    -0.0000     3.5560 ca         1 0LH      -0.188000
      8 CAK          0.5910     0.0000     2.1680 ca         1 0LH      -0.029200
      9 NAL         -0.4670     0.0060     1.2860 na         1 0LH      -0.092400
     10 CAI         -1.8800     0.0140     1.6680 c3         1 0LH       0.044300
     11 CAH         -2.3330     1.4530     1.9230 c3         1 0LH       0.056800
     12 NAA         -3.7500     1.4620     2.3070 nz         1 0LH      -0.808600
     13 H1          -0.6220    -0.0050    -0.8870 h4         1 0LH       0.170000
     14 H2           1.9880    -0.0040    -0.8710 ha         1 0LH       0.176000
     15 H3           3.9620     0.0030     1.5100 ha         1 0LH       0.149000
     16 H4           4.0420     0.0000     3.8970 ha         1 0LH       0.146000
     17 H5           2.0480     0.0210     5.2380 ha         1 0LH       0.143000
     18 H6          -0.0110    -0.1780     4.3710 ha         1 0LH       0.132000
     19 H7          -2.0140    -0.5710     2.5700 h1         1 0LH       0.074200
     20 H8          -2.4730    -0.4140     0.8690 h1         1 0LH       0.074200
     21 H9          -2.1990     2.0390     1.0210 hx         1 0LH       0.123700
     22 H10         -1.7400     1.8820     2.7220 hx         1 0LH       0.123700
     23 H11         -4.3030     1.1090     1.5500 hn         1 0LH       0.458467
     24 H12         -3.8810     0.8830     3.1130 hn         1 0LH       0.458467
     25 HAA3        -4.0330     2.3980     2.5180 hn         1 0LH       0.458467
@<TRIPOS>BOND
     1    10    11 1   
     2    10     9 1   
     3    11    12 1   
     4     7     6 ar  
     5     7     8 ar  
     6     9     8 1   
     7     9     1 1   
     8     6     5 ar  
     9     8     3 ar  
    10     1     2 2   
    11     5     4 ar  
    12     3     2 1   
    13     3     4 ar  
    14     1    13 1   
    15     2    14 1   
    16     4    15 1   
    17     5    16 1   
    18     6    17 1   
    19     7    18 1   
    20    10    19 1   
    21    10    20 1   
    22    11    21 1   
    23    11    22 1   
    24    12    23 1   
    25    12    24 1   
    26    25    12 1   
@<TRIPOS>SUBSTRUCTURE
     1 0LH         1 TEMP              0 ****  ****    0 ROOT
