@<TRIPOS>MOLECULE
0LI
   66    70     1     0     0
SMALL
bcc


@<TRIPOS>ATOM
      1 N1           0.0000     0.0000     0.0000 nc         1 0LI      -0.209600
      2 N3          11.2010    -1.8320   -10.5000 n3         1 0LI      -0.504600
      3 C4           0.5800     0.0080    -4.7050 cg         1 0LI      -0.081000
      4 C5           1.1910    -0.2660    -6.0420 ca         1 0LI       0.066000
      5 C6           0.4080    -0.6920    -7.0700 ca         1 0LI      -0.070300
      6 C7           0.5860    -1.0370    -8.3940 ca         1 0LI      -0.103000
      7 C8           2.1110    -0.8550    -8.6760 ca         1 0LI      -0.070000
      8 C10          2.5140    -0.1550    -6.4500 ca         1 0LI       0.027000
      9 C13          6.5880    -1.1150    -9.4890 ca         1 0LI      -0.065400
     10 C15          8.5470    -0.2340    -9.1300 ca         1 0LI      -0.070000
     11 C17          7.9140    -1.9120   -10.7970 ca         1 0LI      -0.042300
     12 C21         12.6700    -1.6920   -11.1680 c3         1 0LI       0.110300
     13 C22         13.7780    -2.6760   -10.7940 c3         1 0LI       0.157800
     14 C24         11.3650    -1.3910    -9.1700 c3         1 0LI       0.110300
     15 C81          2.2760     0.0000     1.0400 cd         1 0LI       0.043000
     16 C82          3.6040     0.0000     0.7290 cc         1 0LI      -0.287300
     17 C83          4.0120     0.0000    -0.6090 cc         1 0LI       0.484200
     18 N81          3.1350     0.0000    -1.5790 nd         1 0LI      -0.616800
     19 N82          1.7650     0.0000    -1.3000 na         1 0LI       0.706200
     20 C84          1.3280     0.0000     0.0000 cd         1 0LI      -0.296300
     21 C1          -0.4460     0.0000    -1.2500 cc         1 0LI       0.051600
     22 C2           0.6480     0.0000    -2.0990 cd         1 0LI      -0.179800
     23 C3           0.6210    -0.0000    -3.5310 ch         1 0LI      -0.078300
     24 C9           3.1270    -0.3600    -7.5470 ca         1 0LI      -0.124600
     25 C11         -1.2300    -1.0520    -6.5530 c3         1 0LI       0.051200
     26 C12          4.3210    -0.4350    -8.0100 c          1 0LI       0.570700
     27 O1           5.2740     0.0190    -6.9630 o          1 0LI      -0.687100
     28 N2           5.0140    -1.3930    -9.2970 ns         1 0LI      -0.127100
     29 C14          7.5120    -0.2710    -8.8430 ca         1 0LI      -0.068000
     30 C16          9.0230    -1.1100   -10.2580 ca         1 0LI      -0.130300
     31 C18          6.9880    -1.9590   -10.5560 ca         1 0LI      -0.110000
     32 C19          8.2590    -2.7230   -11.9780 c3         1 0LI       0.587200
     33 F1           7.1310    -3.0740   -12.5980 f          1 0LI      -0.218633
     34 F2           9.2770    -2.2730   -13.0360 f          1 0LI      -0.218633
     35 F3           8.6300    -3.9550   -11.6010 f          1 0LI      -0.218633
     36 C23         12.5390    -2.4500    -8.4290 c3         1 0LI       0.157800
     37 N4          13.9580    -2.2330    -9.4660 n3         1 0LI      -0.539600
     38 H7          -0.2010    -1.2460    -9.1090 ha         1 0LI       0.148000
     39 H8           2.4590    -1.1610    -9.6550 ha         1 0LI       0.106000
     40 H10          3.1950    -0.1650    -5.6080 ha         1 0LI       0.111000
     41 H15          9.2140     0.4380    -8.6020 ha         1 0LI       0.104000
     42 H20         10.8830     0.1880   -10.7670 h1         1 0LI       0.034200
     43 H20A        10.4660    -0.8690   -12.1680 h1         1 0LI       0.034200
     44 H21         12.5380    -1.7530   -12.2420 h1         1 0LI       0.023200
     45 H21A        13.0330    -0.6990   -10.9350 h1         1 0LI       0.023200
     46 H22         13.4310    -3.7020   -10.8290 h1         1 0LI       0.025950
     47 H22A        14.6690    -2.5200   -11.3910 h1         1 0LI       0.025950
     48 H24         11.7310    -0.3710    -9.1620 h1         1 0LI       0.023200
     49 H24A        10.4230    -1.4560    -8.6400 h1         1 0LI       0.023200
     50 H81          1.9630    -0.0000     2.0770 ha         1 0LI       0.125000
     51 H82          4.3450     0.0000     1.5190 ha         1 0LI       0.128000
     52 H83          5.0670     0.0010    -0.8530 h4         1 0LI      -0.002900
     53 H1          -1.4850    -0.0270    -1.5550 h4         1 0LI       0.148000
     54 H11         -1.7750    -1.5080    -7.3710 hc         1 0LI       0.005367
     55 H11A        -1.2010    -1.7350    -5.7130 hc         1 0LI       0.005367
     56 H11B        -1.7250    -0.1350    -6.2560 hc         1 0LI       0.005367
     57 HN2          4.6780    -2.3320    -9.2200 hn         1 0LI       0.167500
     58 H14          7.1700     0.2760    -7.9730 ha         1 0LI       0.150000
     59 H18          6.3050    -2.6700   -11.0080 ha         1 0LI       0.142000
     60 H23         12.1990    -3.4780    -8.4550 h1         1 0LI       0.025950
     61 H23A        12.7540    -2.1330    -7.4150 h1         1 0LI       0.025950
     62 H25         14.1180    -3.9950    -8.7000 h1         1 0LI      -0.011967
     63 H25A        14.7120    -2.6350    -7.7370 h1         1 0LI      -0.011967
     64 H25B        15.6150    -3.1720    -9.1610 h1         1 0LI      -0.011967
     65 C20         10.5090    -0.7760   -11.0890 c3         1 0LI       0.231100
     66 C25         14.6260    -3.0390    -8.7390 c3         1 0LI       0.186100
@<TRIPOS>BOND
     1     1    20 2   
     2     1    21 1   
     3     2    12 1   
     4     2    14 1   
     5     2    65 1   
     6     3     4 1   
     7     3    23 3   
     8     4     5 ar  
     9     4     8 ar  
    10     5     6 ar  
    11     5    25 1   
    12     6     7 ar  
    13     6    38 1   
    14     7    24 ar  
    15     7    39 1   
    16     8    24 ar  
    17     8    40 1   
    18     9    28 1   
    19     9    29 ar  
    20     9    31 ar  
    21    10    29 ar  
    22    10    30 ar  
    23    10    41 1   
    24    11    30 ar  
    25    11    31 ar  
    26    11    32 1   
    27    12    13 1   
    28    12    44 1   
    29    12    45 1   
    30    13    37 1   
    31    13    46 1   
    32    13    47 1   
    33    14    36 1   
    34    14    48 1   
    35    14    49 1   
    36    15    16 2   
    37    15    20 1   
    38    15    50 1   
    39    16    17 1   
    40    16    51 1   
    41    17    18 2   
    42    17    52 1   
    43    18    19 1   
    44    19    20 1   
    45    19    22 1   
    46    21    22 2   
    47    21    53 1   
    48    22    23 1   
    49    24    26 1   
    50    25    54 1   
    51    25    55 1   
    52    25    56 1   
    53    26    27 2   
    54    26    28 1   
    55    28    57 1   
    56    29    58 1   
    57    30    65 1   
    58    31    59 1   
    59    32    33 1   
    60    32    34 1   
    61    32    35 1   
    62    36    37 1   
    63    36    60 1   
    64    36    61 1   
    65    37    66 1   
    66    42    65 1   
    67    43    65 1   
    68    62    66 1   
    69    63    66 1   
    70    64    66 1   
@<TRIPOS>SUBSTRUCTURE
     1 0LI         1 TEMP              0 ****  ****    0 ROOT
