@<TRIPOS>MOLECULE
0LI
   66    70     1     0     0
SMALL
bcc


@<TRIPOS>ATOM
      1 N1           2.3320    -1.7380    -0.1710 nc         1 0LI      -0.260600
      2 N3           0.2150    -7.8590   -14.4080 n3         1 0LI      -0.732600
      3 C4           0.9730    -0.6450    -4.6960 cg         1 0LI      -0.083000
      4 C5           0.5300    -0.5670    -6.0280 ca         1 0LI       0.017000
      5 C6           0.4400     0.6770    -6.6870 ca         1 0LI      -0.023300
      6 C7          -0.0080     0.7160    -8.0120 ca         1 0LI      -0.143000
      7 C8          -0.3550    -0.4520    -8.6850 ca         1 0LI      -0.094000
      8 C10          0.1720    -1.7440    -6.7060 ca         1 0LI      -0.052000
      9 C13         -0.4170    -4.2090   -10.8610 ca         1 0LI       0.066600
     10 C15          0.1400    -5.3510   -12.9380 ca         1 0LI      -0.094000
     11 C17         -1.4990    -6.3050   -11.4620 ca         1 0LI      -0.139300
     12 C21          1.2610    -8.4760   -13.6020 c3         1 0LI       0.164800
     13 C22          2.4930    -8.8820   -14.4330 c3         1 0LI       0.168800
     14 C24         -0.1330    -8.6720   -15.5660 c3         1 0LI       0.164800
     15 C81          3.0860     0.4730     0.8690 cd         1 0LI      -0.043000
     16 C82          3.2240     1.8010     0.5740 cc         1 0LI      -0.238300
     17 C83          2.8570     2.2660    -0.7400 cc         1 0LI       0.357200
     18 N81          2.3840     1.4920    -1.7120 nd         1 0LI      -0.452800
     19 N82          2.2470     0.2030    -1.4350 na         1 0LI       0.177200
     20 C84          2.5790    -0.3960    -0.1550 cd         1 0LI      -0.067300
     21 C1           1.8500    -2.0210    -1.4280 cc         1 0LI       0.042600
     22 C2           1.7780    -0.8570    -2.2450 cd         1 0LI       0.008200
     23 C3           1.3490    -0.7340    -3.5590 ch         1 0LI      -0.101300
     24 C9          -0.2590    -1.6850    -8.0330 ca         1 0LI      -0.158600
     25 C11          0.7980     1.9310    -5.9860 c3         1 0LI      -0.066800
     26 C12         -0.6410    -2.9630    -8.7020 c          1 0LI       0.682700
     27 O1          -1.2840    -3.8420    -8.1030 o          1 0LI      -0.573100
     28 N2          -0.2180    -3.1030   -10.0210 ns         1 0LI      -0.471100
     29 C14          0.3180    -4.2840   -12.0690 ca         1 0LI      -0.163000
     30 C16         -0.7590    -6.3860   -12.6490 ca         1 0LI      -0.057300
     31 C18         -1.3350    -5.2390   -10.5750 ca         1 0LI      -0.118000
     32 C19         -2.5220    -7.3780   -11.0880 c3         1 0LI       0.686200
     33 F1          -1.9770    -8.6030   -10.7820 f          1 0LI      -0.237300
     34 F2          -3.3010    -7.0870    -9.9950 f          1 0LI      -0.237300
     35 F3          -3.4430    -7.6570   -12.0710 f          1 0LI      -0.237300
     36 C23          1.0980    -9.0790   -16.3980 c3         1 0LI       0.168800
     37 N4           2.1510    -9.6860   -15.5970 n3         1 0LI      -0.732600
     38 H7          -0.0900     1.6860    -8.5270 ha         1 0LI       0.141000
     39 H8          -0.7230    -0.3910    -9.7210 ha         1 0LI       0.139000
     40 H10          0.2180    -2.7170    -6.1900 ha         1 0LI       0.163000
     41 H15          0.7220    -5.3790   -13.8740 ha         1 0LI       0.161000
     42 H20         -1.7780    -7.1900   -14.3340 h1         1 0LI       0.055200
     43 H20A        -1.3510    -8.4190   -13.0610 h1         1 0LI       0.055200
     44 H21          0.8820    -9.3850   -13.0510 h1         1 0LI       0.042200
     45 H21A         1.5900    -7.7180   -12.8370 h1         1 0LI       0.042200
     46 H22          3.1630    -9.5010   -13.7730 h1         1 0LI       0.036200
     47 H22A         3.0590    -7.9480   -14.7220 h1         1 0LI       0.036200
     48 H24         -0.6930    -9.6060   -15.2670 h1         1 0LI       0.042200
     49 H24A        -0.8070    -8.0600   -16.2290 h1         1 0LI       0.042200
     50 H81          3.3430     0.0370     1.8450 ha         1 0LI       0.171000
     51 H82          3.6040     2.5260     1.3050 ha         1 0LI       0.158000
     52 H83          2.9590     3.3350    -1.0010 h4         1 0LI       0.044100
     53 H1           1.5650    -3.0340    -1.7200 h4         1 0LI       0.194000
     54 H11         -0.0330     2.2300    -5.2960 hc         1 0LI       0.056367
     55 H11A         0.9720     2.7650    -6.7100 hc         1 0LI       0.056367
     56 H11B         1.7230     1.7910    -5.3720 hc         1 0LI       0.056367
     57 HN2          0.3700    -2.3870   -10.3860 hn         1 0LI       0.321500
     58 H14          1.0390    -3.4950   -12.3350 ha         1 0LI       0.135000
     59 H18         -1.9320    -5.2140    -9.6440 ha         1 0LI       0.191000
     60 H23          0.7630    -9.8400   -17.1570 h1         1 0LI       0.036200
     61 H23A         1.4710    -8.1720   -16.9590 h1         1 0LI       0.036200
     62 H25          4.0410   -10.5790   -15.7270 h1         1 0LI       0.032033
     63 H25A         3.8280    -9.1520   -16.8420 h1         1 0LI       0.032033
     64 H25B         2.9890   -10.7290   -17.2090 h1         1 0LI       0.032033
     65 C20         -0.9630    -7.5140   -13.6200 c3         1 0LI       0.203100
     66 C25          3.3100   -10.0400   -16.3840 c3         1 0LI       0.158100
@<TRIPOS>BOND
     1     1    20 2   
     2     1    21 1   
     3     2    12 1   
     4     2    14 1   
     5     2    65 1   
     6     3     4 1   
     7     3    23 3   
     8     4     5 ar  
     9     4     8 ar  
    10     5     6 ar  
    11     5    25 1   
    12     6     7 ar  
    13     6    38 1   
    14     7    24 ar  
    15     7    39 1   
    16     8    24 ar  
    17     8    40 1   
    18     9    28 1   
    19     9    29 ar  
    20     9    31 ar  
    21    10    29 ar  
    22    10    30 ar  
    23    10    41 1   
    24    11    30 ar  
    25    11    31 ar  
    26    11    32 1   
    27    12    13 1   
    28    12    44 1   
    29    12    45 1   
    30    13    37 1   
    31    13    46 1   
    32    13    47 1   
    33    14    36 1   
    34    14    48 1   
    35    14    49 1   
    36    15    16 2   
    37    15    20 1   
    38    15    50 1   
    39    16    17 1   
    40    16    51 1   
    41    17    18 2   
    42    17    52 1   
    43    18    19 1   
    44    19    20 1   
    45    19    22 1   
    46    21    22 2   
    47    21    53 1   
    48    22    23 1   
    49    24    26 1   
    50    25    54 1   
    51    25    55 1   
    52    25    56 1   
    53    26    27 2   
    54    26    28 1   
    55    28    57 1   
    56    29    58 1   
    57    30    65 1   
    58    31    59 1   
    59    32    33 1   
    60    32    34 1   
    61    32    35 1   
    62    36    37 1   
    63    36    60 1   
    64    36    61 1   
    65    37    66 1   
    66    42    65 1   
    67    43    65 1   
    68    62    66 1   
    69    63    66 1   
    70    64    66 1   
@<TRIPOS>SUBSTRUCTURE
     1 0LI         1 TEMP              0 ****  ****    0 ROOT
