@<TRIPOS>MOLECULE
molecule
   66    70     1     0     0
SMALL
bcc


@<TRIPOS>ATOM
      1 N1           0.0000     0.0000     0.0000 nc         1 0LI      -0.289600
      2 N3          11.2010    -1.8320   -10.5000 n3         1 0LI      -0.630600
      3 C4           0.5800     0.0080    -4.7050 cg         1 0LI      -0.071000
      4 C5           1.1910    -0.2660    -6.0420 ca         1 0LI       0.023000
      5 C6           0.4080    -0.6920    -7.0700 ca         1 0LI      -0.046300
      6 C7           0.5860    -1.0370    -8.3940 ca         1 0LI      -0.149000
      7 C8           2.1110    -0.8550    -8.6760 ca         1 0LI      -0.090000
      8 C10          2.5140    -0.1550    -6.4500 ca         1 0LI       0.005000
      9 C13          6.5880    -1.1150    -9.4890 ca         1 0LI      -0.006400
     10 C15          8.5470    -0.2340    -9.1300 ca         1 0LI      -0.101000
     11 C17          7.9140    -1.9120   -10.7970 ca         1 0LI      -0.038300
     12 C21         12.6700    -1.6920   -11.1680 c3         1 0LI       0.111800
     13 C22         13.7780    -2.6760   -10.7940 c3         1 0LI       0.142800
     14 C24         11.3650    -1.3910    -9.1700 c3         1 0LI       0.111800
     15 C81          2.2760     0.0000     1.0400 cd         1 0LI      -0.019000
     16 C82          3.6040     0.0000     0.7290 cc         1 0LI      -0.276300
     17 C83          4.0120     0.0000    -0.6090 cc         1 0LI       0.406200
     18 N81          3.1350     0.0000    -1.5790 nd         1 0LI      -0.467800
     19 N82          1.7650     0.0000    -1.3000 na         1 0LI       0.203200
     20 C84          1.3280     0.0000     0.0000 cd         1 0LI      -0.076300
     21 C1          -0.4460     0.0000    -1.2500 cc         1 0LI       0.050600
     22 C2           0.6480     0.0000    -2.0990 cd         1 0LI      -0.007800
     23 C3           0.6210    -0.0000    -3.5310 ch         1 0LI      -0.086300
     24 C9           3.1270    -0.3600    -7.5470 ca         1 0LI      -0.111600
     25 C11         -1.2300    -1.0520    -6.5530 c3         1 0LI      -0.061800
     26 C12          4.3210    -0.4350    -8.0100 c          1 0LI       0.582700
     27 O1           5.2740     0.0190    -6.9630 o          1 0LI      -0.667100
     28 N2           5.0140    -1.3930    -9.2970 ns         1 0LI      -0.381100
     29 C14          7.5120    -0.2710    -8.8430 ca         1 0LI      -0.078000
     30 C16          9.0230    -1.1100   -10.2580 ca         1 0LI      -0.123300
     31 C18          6.9880    -1.9590   -10.5560 ca         1 0LI      -0.114000
     32 C19          8.2590    -2.7230   -11.9780 c3         1 0LI       0.638200
     33 F1           7.1310    -3.0740   -12.5980 f          1 0LI      -0.239300
     34 F2           9.2770    -2.2730   -13.0360 f          1 0LI      -0.239300
     35 F3           8.6300    -3.9550   -11.6010 f          1 0LI      -0.239300
     36 C23         12.5390    -2.4500    -8.4290 c3         1 0LI       0.142800
     37 N4          13.9580    -2.2330    -9.4660 n3         1 0LI      -0.684600
     38 H7          -0.2010    -1.2460    -9.1090 ha         1 0LI       0.182000
     39 H8           2.4590    -1.1610    -9.6550 ha         1 0LI       0.148000
     40 H10          3.1950    -0.1650    -5.6080 ha         1 0LI       0.148000
     41 H15          9.2140     0.4380    -8.6020 ha         1 0LI       0.134000
     42 H20         10.8830     0.1880   -10.7670 h1         1 0LI       0.067200
     43 H20A        10.4660    -0.8690   -12.1680 h1         1 0LI       0.067200
     44 H21         12.5380    -1.7530   -12.2420 h1         1 0LI       0.046950
     45 H21A        13.0330    -0.6990   -10.9350 h1         1 0LI       0.046950
     46 H22         13.4310    -3.7020   -10.8290 h1         1 0LI       0.058950
     47 H22A        14.6690    -2.5200   -11.3910 h1         1 0LI       0.058950
     48 H24         11.7310    -0.3710    -9.1620 h1         1 0LI       0.046950
     49 H24A        10.4230    -1.4560    -8.6400 h1         1 0LI       0.046950
     50 H81          1.9630    -0.0000     2.0770 ha         1 0LI       0.167000
     51 H82          4.3450     0.0000     1.5190 ha         1 0LI       0.153000
     52 H83          5.0670     0.0010    -0.8530 h4         1 0LI       0.056100
     53 H1          -1.4850    -0.0270    -1.5550 h4         1 0LI       0.195000
     54 H11         -1.7750    -1.5080    -7.3710 hc         1 0LI       0.044700
     55 H11A        -1.2010    -1.7350    -5.7130 hc         1 0LI       0.044700
     56 H11B        -1.7250    -0.1350    -6.2560 hc         1 0LI       0.044700
     57 HN2          4.6780    -2.3320    -9.2200 hn         1 0LI       0.273500
     58 H14          7.1700     0.2760    -7.9730 ha         1 0LI       0.174000
     59 H18          6.3050    -2.6700   -11.0080 ha         1 0LI       0.163000
     60 H23         12.1990    -3.4780    -8.4550 h1         1 0LI       0.058950
     61 H23A        12.7540    -2.1330    -7.4150 h1         1 0LI       0.058950
     62 H25         14.1180    -3.9950    -8.7000 h1         1 0LI       0.014033
     63 H25A        14.7120    -2.6350    -7.7370 h1         1 0LI       0.014033
     64 H25B        15.6150    -3.1720    -9.1610 h1         1 0LI       0.014033
     65 C20         10.5090    -0.7760   -11.0890 c3         1 0LI       0.201100
     66 C25         14.6260    -3.0390    -8.7390 c3         1 0LI       0.145100
@<TRIPOS>BOND
     1     1    20 2   
     2     1    21 1   
     3     2    65 1   
     4     2    12 1   
     5     2    14 1   
     6     3     4 1   
     7     3    23 3   
     8     4     5 ar  
     9     4     8 ar  
    10     5     6 ar  
    11     5    25 1   
    12     6     7 ar  
    13     6    38 1   
    14     7    24 ar  
    15     7    39 1   
    16     8    24 ar  
    17     8    40 1   
    18     9    28 1   
    19     9    29 ar  
    20     9    31 ar  
    21    10    29 ar  
    22    10    30 ar  
    23    10    41 1   
    24    11    30 ar  
    25    11    31 ar  
    26    11    32 1   
    27    65    30 1   
    28    65    42 1   
    29    65    43 1   
    30    12    13 1   
    31    12    44 1   
    32    12    45 1   
    33    13    37 1   
    34    13    46 1   
    35    13    47 1   
    36    14    36 1   
    37    14    48 1   
    38    14    49 1   
    39    15    16 2   
    40    15    20 1   
    41    15    50 1   
    42    16    17 1   
    43    16    51 1   
    44    17    18 2   
    45    17    52 1   
    46    18    19 1   
    47    19    20 1   
    48    19    22 1   
    49    21    22 2   
    50    21    53 1   
    51    22    23 1   
    52    24    26 1   
    53    25    54 1   
    54    25    55 1   
    55    25    56 1   
    56    26    27 2   
    57    26    28 1   
    58    28    57 1   
    59    29    58 1   
    60    31    59 1   
    61    32    33 1   
    62    32    34 1   
    63    32    35 1   
    64    36    37 1   
    65    36    60 1   
    66    36    61 1   
    67    66    37 1   
    68    66    62 1   
    69    66    63 1   
    70    66    64 1   
@<TRIPOS>SUBSTRUCTURE
     1 0LI         1 TEMP              0 ****  ****    0 ROOT
