@<TRIPOS>MOLECULE
0LJ
   47    49     1     0     0
SMALL
bcc


@<TRIPOS>ATOM
      1 C10          0.1910     0.2720     0.2660 c          1 0LJ       0.623100
      2 C15         -2.6900     0.2380    -2.3340 c3         1 0LJ       0.195800
      3 C17         -4.9430    -0.7960    -2.7770 c3         1 0LJ      -0.043100
      4 C21         -6.0820     1.4780    -3.1960 ca         1 0LJ      -0.073000
      5 C22         -5.9080     2.8730    -3.2530 ca         1 0LJ      -0.043000
      6 C24         -3.5500     2.6480    -2.7050 ca         1 0LJ      -0.063000
      7 C01          4.2820    -0.8200     2.6590 ca         1 0LJ      -0.076000
      8 C02          4.3110     0.3920     3.3640 ca         1 0LJ       0.009400
      9 C03          3.2530     1.3140     3.1800 ca         1 0LJ       0.169900
     10 C04          2.1920     1.0150     2.3040 ca         1 0LJ      -0.158000
     11 C05          2.1860    -0.2060     1.6120 ca         1 0LJ      -0.009400
     12 C06          3.2430    -1.1270     1.7910 ca         1 0LJ      -0.137000
     13 N09          1.1270    -0.5770     0.7310 ns         1 0LJ      -0.348100
     14 O11         -0.0280     1.4690     0.5030 o          1 0LJ      -0.531100
     15 C12         -0.8290    -0.3830    -0.7390 c          1 0LJ       0.469100
     16 N13         -2.0610     0.4580    -0.9900 ny         1 0LJ      -0.691800
     17 O14         -0.7470    -1.4230    -1.3810 o          1 0LJ      -0.519100
     18 C16         -3.4730    -1.1390    -2.4280 c3         1 0LJ       0.123500
     19 C18         -4.9880     0.6870    -2.8920 ca         1 0LJ      -0.110300
     20 C19         -3.7280     1.2720    -2.6380 ca         1 0LJ      -0.222300
     21 N20         -2.8040    -2.0370    -3.4600 ny         1 0LJ      -0.747000
     22 C23         -4.6600     3.4470    -3.0160 ca         1 0LJ      -0.083000
     23 C25         -3.5030    -3.3640    -3.6310 c2         1 0LJ       0.626100
     24 N26         -3.7970    -4.0320    -2.5910 n2         1 0LJ      -0.596100
     25 N27         -3.7460    -3.7620    -5.0720 nz         1 0LJ      -0.867600
     26 Cl7          5.5930     0.7160     4.4000 cl         1 0LJ       0.032600
     27 F08          3.2290     2.4950     3.8300 f          1 0LJ      -0.086900
     28 H1          -1.8410     0.3000    -3.0810 hx         1 0LJ       0.115700
     29 H2          -5.6150    -1.1520    -1.9470 hc         1 0LJ       0.097200
     30 H3          -5.2890    -1.2840    -3.7250 hc         1 0LJ       0.097200
     31 H4          -7.0760     1.0390    -3.3850 ha         1 0LJ       0.180000
     32 H5          -6.7760     3.5180    -3.4900 ha         1 0LJ       0.200000
     33 H6          -2.5700     3.1200    -2.5300 ha         1 0LJ       0.164000
     34 H7           5.1040    -1.5460     2.7960 ha         1 0LJ       0.188000
     35 H8           1.3910     1.7650     2.1910 ha         1 0LJ       0.181000
     36 H9           3.2630    -2.0910     1.2590 ha         1 0LJ       0.149000
     37 H10          1.1630    -1.5160     0.3850 hn         1 0LJ       0.354500
     38 H11         -1.7790     1.4610    -0.9180 hn         1 0LJ       0.504300
     39 H12         -3.4300    -1.7020    -1.4470 hx         1 0LJ       0.144700
     40 H13         -2.7580    -1.5260    -4.3530 hn         1 0LJ       0.497800
     41 H14         -4.5390     4.5460    -3.0700 ha         1 0LJ       0.200000
     42 H15         -4.2400    -4.9360    -2.5640 hn         1 0LJ       0.557400
     43 H16         -4.2080    -4.6920    -5.1060 hn         1 0LJ       0.508133
     44 H17         -2.8600    -3.8390    -5.5990 hn         1 0LJ       0.508133
     45 H273        -4.3690    -3.0880    -5.5470 hn         1 0LJ       0.508133
     46 H132        -2.7420     0.2960    -0.2330 hn         1 0LJ       0.504300
     47 H202        -1.8330    -2.2300    -3.1280 hn         1 0LJ       0.497800
@<TRIPOS>BOND
     1     1    13 1   
     2     1    14 2   
     3     1    15 1   
     4     2    16 1   
     5     2    18 1   
     6     2    20 1   
     7     2    28 1   
     8     3    18 1   
     9     3    19 1   
    10     3    29 1   
    11     3    30 1   
    12     4     5 ar  
    13     4    19 ar  
    14     4    31 1   
    15     5    22 ar  
    16     5    32 1   
    17     6    20 ar  
    18     6    22 ar  
    19     6    33 1   
    20     7     8 ar  
    21     7    12 ar  
    22     7    34 1   
    23     8     9 ar  
    24     8    26 1   
    25     9    10 ar  
    26     9    27 1   
    27    10    11 ar  
    28    10    35 1   
    29    11    12 ar  
    30    11    13 1   
    31    12    36 1   
    32    13    37 1   
    33    15    16 1   
    34    15    17 2   
    35    16    38 1   
    36    16    46 1   
    37    18    21 1   
    38    18    39 1   
    39    19    20 ar  
    40    21    23 1   
    41    21    40 1   
    42    21    47 1   
    43    22    41 1   
    44    23    24 2   
    45    23    25 1   
    46    24    42 1   
    47    25    43 1   
    48    25    44 1   
    49    25    45 1   
@<TRIPOS>SUBSTRUCTURE
     1 0LJ         1 TEMP              0 ****  ****    0 ROOT
