@<TRIPOS>MOLECULE
0LJ
   45    47     1     0     0
SMALL
bcc


@<TRIPOS>ATOM
      1 C10          0.0000     0.0000     0.0000 c          1 0LJ       0.487100
      2 C15         -2.8280     0.0090    -2.5610 c3         1 0LJ       0.090000
      3 C17         -5.0840     0.6910    -2.0800 c3         1 0LJ       0.005900
      4 C21         -4.7640     3.0940    -3.1110 ca         1 0LJ      -0.075000
      5 C22         -3.8940     3.9700    -3.7350 ca         1 0LJ      -0.067000
      6 C24         -2.1750     2.3080    -3.6640 ca         1 0LJ      -0.047000
      7 C01          3.9360     0.8940     2.4530 ca         1 0LJ      -0.050000
      8 C02          3.4330     0.2960     3.5940 ca         1 0LJ      -0.081600
      9 C03          2.2380    -0.4020     3.5450 ca         1 0LJ       0.135900
     10 C04          1.5430    -0.5020     2.3530 ca         1 0LJ      -0.130000
     11 C05          2.0460     0.0990     1.2060 ca         1 0LJ      -0.098400
     12 C06          3.2430     0.8020     1.2610 ca         1 0LJ      -0.131000
     13 N09          1.3470     0.0000     0.0000 ns         1 0LJ       0.033900
     14 O11         -0.6070     0.0000     1.0510 o          1 0LJ      -0.629100
     15 C12         -0.7470     0.0040    -1.2930 c          1 0LJ       0.515100
     16 N13         -2.0950     0.0040    -1.2920 ns         1 0LJ      -0.159900
     17 O14         -0.1410     0.0090    -2.3440 o          1 0LJ      -0.636100
     18 C16         -4.2440    -0.5730    -2.3640 c3         1 0LJ       0.096500
     19 C18         -4.3390     1.8240    -2.7620 ca         1 0LJ      -0.123300
     20 C19         -3.0440     1.4300    -3.0380 ca         1 0LJ      -0.164300
     21 N20         -4.7070    -1.2420    -3.5830 nu         1 0LJ      -0.452200
     22 C23         -2.5980     3.5760    -4.0120 ca         1 0LJ      -0.088000
     23 C25         -5.7330    -2.1540    -3.5190 c2         1 0LJ       0.232100
     24 N26         -6.2950    -2.4230    -2.3740 n2         1 0LJ      -0.607100
     25 N27         -6.1670    -2.7830    -4.6610 nz         1 0LJ       0.202400
     26 H1          -2.2670    -0.5730    -3.2820 h1         1 0LJ       0.067700
     27 H2          -6.1240     0.6040    -2.3710 hc         1 0LJ       0.039700
     28 H3          -4.9890     0.9080    -1.0230 hc         1 0LJ       0.039700
     29 H4          -5.7890     3.3710    -2.8980 ha         1 0LJ       0.111000
     30 H5          -4.2310     4.9550    -4.0340 ha         1 0LJ       0.118000
     31 H6          -1.1750     1.9900    -3.9340 ha         1 0LJ       0.127000
     32 H7           4.8910     1.4050     2.4480 ha         1 0LJ       0.124000
     33 H8           0.5960    -1.0270     2.3180 ha         1 0LJ       0.158000
     34 H9           3.5980     1.2940     0.3640 ha         1 0LJ       0.114000
     35 H10          1.8330     0.2080    -0.8500 hn         1 0LJ       0.185500
     36 H11         -2.5790     0.2320    -0.4470 hn         1 0LJ       0.199500
     37 H12         -4.2300    -1.1910    -1.4750 h1         1 0LJ       0.071700
     38 H13         -4.5710    -0.7450    -4.4410 hn         1 0LJ       0.306800
     39 H14         -1.9160     4.2600    -4.5000 ha         1 0LJ       0.120000
     40 H15         -5.8910    -1.8740    -1.6410 hn         1 0LJ       0.376400
     41 H16         -5.7790    -2.3800    -5.4910 hn         1 0LJ       0.224133
     42 H17         -5.8550    -3.7290    -4.5700 hn         1 0LJ       0.224133
     43 Cl7          4.3030     0.4200     5.0910 cl         1 0LJ       0.025600
     44 H273        -7.1650    -2.7760    -4.7280 hn         1 0LJ       0.224133
     45 F08          1.7490    -0.9860     4.6610 f          1 0LJ      -0.115900
@<TRIPOS>BOND
     1     1    13 1   
     2     1    14 2   
     3     1    15 1   
     4     2    16 1   
     5     2    18 1   
     6     2    20 1   
     7     2    26 1   
     8     3    18 1   
     9     3    19 1   
    10     3    27 1   
    11     3    28 1   
    12     4     5 ar  
    13     4    19 ar  
    14     4    29 1   
    15     5    22 ar  
    16     5    30 1   
    17     6    20 ar  
    18     6    22 ar  
    19     6    31 1   
    20     7     8 ar  
    21     7    12 ar  
    22     7    32 1   
    23     8     9 ar  
    24     8    43 1   
    25     9    10 ar  
    26     9    45 1   
    27    10    11 ar  
    28    10    33 1   
    29    11    12 ar  
    30    11    13 1   
    31    12    34 1   
    32    13    35 1   
    33    15    16 1   
    34    15    17 2   
    35    16    36 1   
    36    18    21 1   
    37    18    37 1   
    38    19    20 ar  
    39    21    23 1   
    40    21    38 1   
    41    22    39 1   
    42    23    24 2   
    43    23    25 1   
    44    24    40 1   
    45    25    41 1   
    46    25    42 1   
    47    25    44 1   
@<TRIPOS>SUBSTRUCTURE
     1 0LJ         1 TEMP              0 ****  ****    0 ROOT
