@<TRIPOS>MOLECULE
molecule
   45    47     1     0     0
SMALL
bcc


@<TRIPOS>ATOM
      1 C10          0.0000     0.0000     0.0000 c          1 0LJ       0.597100
      2 C15         -2.8280     0.0090    -2.5610 c3         1 0LJ       0.169000
      3 C17         -5.0840     0.6910    -2.0800 c3         1 0LJ      -0.065100
      4 C21         -4.7640     3.0940    -3.1110 ca         1 0LJ      -0.114000
      5 C22         -3.8940     3.9700    -3.7350 ca         1 0LJ      -0.104000
      6 C24         -2.1750     2.3080    -3.6640 ca         1 0LJ      -0.082000
      7 C01          3.9360     0.8940     2.4530 ca         1 0LJ      -0.076000
      8 C02          3.4330     0.2960     3.5940 ca         1 0LJ      -0.023600
      9 C03          2.2380    -0.4020     3.5450 ca         1 0LJ       0.158900
     10 C04          1.5430    -0.5020     2.3530 ca         1 0LJ      -0.161000
     11 C05          2.0460     0.0990     1.2060 ca         1 0LJ       0.065600
     12 C06          3.2430     0.8020     1.2610 ca         1 0LJ      -0.163000
     13 N09          1.3470     0.0000     0.0000 ns         1 0LJ      -0.438100
     14 O11         -0.6070     0.0000     1.0510 o          1 0LJ      -0.579100
     15 C12         -0.7470     0.0040    -1.2930 c          1 0LJ       0.602100
     16 N13         -2.0950     0.0040    -1.2920 ns         1 0LJ      -0.553900
     17 O14         -0.1410     0.0090    -2.3440 o          1 0LJ      -0.596100
     18 C16         -4.2440    -0.5730    -2.3640 c3         1 0LJ       0.205500
     19 C18         -4.3390     1.8240    -2.7620 ca         1 0LJ      -0.113300
     20 C19         -3.0440     1.4300    -3.0380 ca         1 0LJ      -0.142300
     21 N20         -4.7070    -1.2420    -3.5830 nu         1 0LJ      -0.804200
     22 C23         -2.5980     3.5760    -4.0120 ca         1 0LJ      -0.120000
     23 C25         -5.7330    -2.1540    -3.5190 c2         1 0LJ       0.699100
     24 N26         -6.2950    -2.4230    -2.3740 n2         1 0LJ      -0.809100
     25 N27         -6.1670    -2.7830    -4.6610 nz         1 0LJ      -0.809600
     26 H1          -2.2850    -0.5640    -3.3040 h1         1 0LJ       0.092700
     27 H2          -6.1220     0.5850    -2.3700 hc         1 0LJ       0.079700
     28 H3          -4.8800     0.9250    -1.0420 hc         1 0LJ       0.079700
     29 H4          -5.7710     3.4250    -2.8890 ha         1 0LJ       0.139000
     30 H5          -4.2230     4.9630    -4.0160 ha         1 0LJ       0.148000
     31 H6          -1.1510     2.0040    -3.8470 ha         1 0LJ       0.155000
     32 H7           4.8710     1.4390     2.4800 ha         1 0LJ       0.159000
     33 H8           0.6310    -1.0870     2.3440 ha         1 0LJ       0.176000
     34 H9           3.6170     1.2910     0.3700 ha         1 0LJ       0.144000
     35 H10          1.8580     0.0430    -0.8590 hn         1 0LJ       0.350500
     36 H11         -2.5750    -0.0700    -0.4170 hn         1 0LJ       0.343500
     37 H12         -4.2700    -1.2140    -1.4910 h1         1 0LJ       0.111700
     38 H13         -4.6430    -0.6600    -4.3950 hn         1 0LJ       0.447800
     39 H14         -1.9160     4.2600    -4.5000 ha         1 0LJ       0.149000
     40 H15         -7.0450    -3.0660    -2.2130 hn         1 0LJ       0.464400
     41 H16         -5.7330    -3.6830    -4.7110 hn         1 0LJ       0.469133
     42 H17         -7.1530    -2.8180    -4.4950 hn         1 0LJ       0.469133
     43 Cl7          4.3030     0.4200     5.0910 cl         1 0LJ      -0.071400
     44 H273        -6.0490    -2.3060    -5.5340 hn         1 0LJ       0.469133
     45 F08          1.7490    -0.9860     4.6610 f          1 0LJ      -0.118900
@<TRIPOS>BOND
     1     4     5 ar
     2     4    19 ar
     3     3    19 1
     4     3    18 1
     5    24    23 2
     6     5    22 ar
     7    19    20 ar
     8    23    25 1
     9    23    21 1
    10    18    21 1
    11    18     2 1
    12    22     6 ar
    13    20     2 1
    14    20     6 ar
    15     2    16 1
    16    16    15 1
    17    15    17 2
    18    15     1 1
    19    14     1 2
    20     1    13 1
    21    13    11 1
    22    10    11 ar
    23    10     9 ar
    24    11    12 ar
    25    45     9 1
    26     9     8 ar
    27    12     7 ar
    28     8     7 ar
    29     8    43 1
    30     2    26 1
    31     3    27 1
    32     3    28 1
    33     4    29 1
    34     5    30 1
    35     6    31 1
    36     7    32 1
    37    10    33 1
    38    12    34 1
    39    13    35 1
    40    16    36 1
    41    18    37 1
    42    21    38 1
    43    22    39 1
    44    24    40 1
    45    25    41 1
    46    25    42 1
    47    44    25 1
@<TRIPOS>SUBSTRUCTURE
     1 0LJ         1 TEMP              0 ****  ****    0 ROOT
