@<TRIPOS>MOLECULE
0LK
   45    47     1     0     0
SMALL
bcc


@<TRIPOS>ATOM
      1 C13          0.0000     0.0000     0.0000 c          1 0LK       0.486100
      2 C15         -2.0680     0.0970     1.1690 ca         1 0LK      -0.101400
      3 C20         -4.8310     0.2800     1.1770 ca         1 0LK      -0.081600
      4 C21         -4.0950     0.8860     2.1830 ca         1 0LK       0.132900
      5 C22         -2.7140     0.7960     2.1810 ca         1 0LK      -0.144000
      6 C01          4.3930    -3.6980    -0.3760 ca         1 0LK      -0.081000
      7 C02          3.7560    -2.4750    -0.2810 ca         1 0LK      -0.051000
      8 C03          4.1580    -1.4170    -1.0800 ca         1 0LK      -0.139300
      9 C04          5.1990    -1.5860    -1.9720 ca         1 0LK      -0.111300
     10 C05          5.8360    -2.8120    -2.0650 ca         1 0LK      -0.069000
     11 C06          5.4380    -3.8650    -1.2650 ca         1 0LK      -0.071000
     12 C07          3.6330    -0.0010    -1.1680 c3         1 0LK       0.094000
     13 C08          4.1680     0.5460    -2.5080 c3         1 0LK       0.107500
     14 C09          5.4450    -0.2940    -2.7220 c3         1 0LK       0.034900
     15 N10          4.4900     1.9710    -2.3990 nu         1 0LK      -0.478200
     16 N11          2.1680    -0.0010    -1.1670 ns         1 0LK      -0.172900
     17 C12          1.4940     0.0000     0.0000 c          1 0LK       0.507100
     18 N14         -0.6730     0.0000     1.1670 ns         1 0LK       0.031900
     19 O16         -0.6060     0.0040    -1.0520 o          1 0LK      -0.641100
     20 O17          2.1010    -0.0000     1.0510 o          1 0LK      -0.635100
     21 C18         -2.8080    -0.5080     0.1620 ca         1 0LK      -0.103000
     22 C19         -4.1870    -0.4150     0.1690 ca         1 0LK      -0.055000
     23 Cl          -6.5630     0.3940     1.1820 cl         1 0LK       0.028600
     24 F24         -4.7250     1.5650     3.1670 f          1 0LK      -0.114900
     25 C25          4.4820     2.7660    -3.5200 c2         1 0LK       0.246100
     26 N26          4.7830     4.1040    -3.4170 nz         1 0LK       0.197400
     27 N27          4.1880     2.2510    -4.6810 n2         1 0LK      -0.621100
     28 H1          -2.1390     1.2690     2.9680 ha         1 0LK       0.127000
     29 H4           6.6550    -2.9440    -2.7620 ha         1 0LK       0.110000
     30 H5           5.9380    -4.8230    -1.3400 ha         1 0LK       0.117000
     31 H6           4.0140     0.5910    -0.3440 h1         1 0LK       0.063700
     32 H7           3.4560     0.3670    -3.3040 h1         1 0LK       0.059700
     33 H8           6.3050     0.2200    -2.3100 hc         1 0LK       0.029700
     34 H9           5.5890    -0.4950    -3.7770 hc         1 0LK       0.029700
     35 H10          4.7450     2.3600    -1.5120 hn         1 0LK       0.310800
     36 H11          1.6680    -0.0130    -2.0340 hn         1 0LK       0.200500
     37 H12         -0.1780    -0.1070     2.0300 hn         1 0LK       0.190500
     38 H13         -2.3060    -1.0530    -0.6280 ha         1 0LK       0.146000
     39 H14         -4.7640    -0.8880    -0.6160 ha         1 0LK       0.124000
     40 H15          4.1060     4.5540    -2.8330 hn         1 0LK       0.224133
     41 H16          4.7680     4.5200    -4.3270 hn         1 0LK       0.224133
     42 H17          3.9680     1.2780    -4.7580 hn         1 0LK       0.388400
     43 H2           4.0790    -4.5220     0.2530 ha         1 0LK       0.118000
     44 H263         5.6900     4.2110    -3.0080 hn         1 0LK       0.224133
     45 H3           2.9370    -2.3450     0.4160 ha         1 0LK       0.119000
@<TRIPOS>BOND
     1     1    17 1   
     2     1    18 1   
     3     1    19 2   
     4     2     5 ar  
     5     2    18 1   
     6     2    21 ar  
     7     3     4 ar  
     8     3    22 ar  
     9     3    23 1   
    10     4     5 ar  
    11     4    24 1   
    12     5    28 1   
    13     6     7 ar  
    14     6    11 ar  
    15     6    43 1   
    16     7     8 ar  
    17     7    45 1   
    18     8     9 ar  
    19     8    12 1   
    20     9    10 ar  
    21     9    14 1   
    22    10    11 ar  
    23    10    29 1   
    24    11    30 1   
    25    12    13 1   
    26    12    16 1   
    27    12    31 1   
    28    13    14 1   
    29    13    15 1   
    30    13    32 1   
    31    14    33 1   
    32    14    34 1   
    33    15    25 1   
    34    15    35 1   
    35    16    17 1   
    36    16    36 1   
    37    17    20 2   
    38    18    37 1   
    39    21    22 ar  
    40    21    38 1   
    41    22    39 1   
    42    25    26 1   
    43    25    27 2   
    44    26    40 1   
    45    26    41 1   
    46    26    44 1   
    47    27    42 1   
@<TRIPOS>SUBSTRUCTURE
     1 0LK         1 TEMP              0 ****  ****    0 ROOT
