@<TRIPOS>MOLECULE
molecule
   45    47     1     0     0
SMALL
bcc


@<TRIPOS>ATOM
      1 C13          0.0000     0.0000     0.0000 c          1 0LK       0.595100
      2 C15         -2.0680     0.0970     1.1690 ca         1 0LK       0.060600
      3 C20         -4.8310     0.2800     1.1770 ca         1 0LK      -0.021600
      4 C21         -4.0950     0.8860     2.1830 ca         1 0LK       0.160900
      5 C22         -2.7140     0.7960     2.1810 ca         1 0LK      -0.187000
      6 C01          4.3930    -3.6980    -0.3760 ca         1 0LK      -0.114000
      7 C02          3.7560    -2.4750    -0.2810 ca         1 0LK      -0.081000
      8 C03          4.1580    -1.4170    -1.0800 ca         1 0LK      -0.124300
      9 C04          5.1990    -1.5860    -1.9720 ca         1 0LK      -0.099300
     10 C05          5.8360    -2.8120    -2.0650 ca         1 0LK      -0.105000
     11 C06          5.4380    -3.8650    -1.2650 ca         1 0LK      -0.103000
     12 C07          3.6330    -0.0010    -1.1680 c3         1 0LK       0.163000
     13 C08          4.1680     0.5460    -2.5080 c3         1 0LK       0.233500
     14 C09          5.4450    -0.2940    -2.7220 c3         1 0LK      -0.046100
     15 N10          4.4900     1.9710    -2.3990 nu         1 0LK      -0.847200
     16 N11          2.1680    -0.0010    -1.1670 ns         1 0LK      -0.562900
     17 C12          1.4940     0.0000     0.0000 c          1 0LK       0.594100
     18 N14         -0.6730     0.0000     1.1670 ns         1 0LK      -0.442100
     19 O16         -0.6060     0.0040    -1.0520 o          1 0LK      -0.586100
     20 O17          2.1010    -0.0000     1.0510 o          1 0LK      -0.592100
     21 C18         -2.8080    -0.5080     0.1620 ca         1 0LK      -0.135000
     22 C19         -4.1870    -0.4150     0.1690 ca         1 0LK      -0.082000
     23 Cl          -6.5630     0.3940     1.1820 cl         1 0LK      -0.068400
     24 F24         -4.7250     1.5650     3.1670 f          1 0LK      -0.117900
     25 C25          4.4820     2.7660    -3.5200 c2         1 0LK       0.692100
     26 N26          4.7830     4.1040    -3.4170 nz         1 0LK      -0.807600
     27 N27          4.1880     2.2510    -4.6810 n2         1 0LK      -0.782100
     28 H1          -2.1390     1.2690     2.9680 ha         1 0LK       0.155000
     29 H4           6.6550    -2.9440    -2.7620 ha         1 0LK       0.139000
     30 H5           5.9380    -4.8230    -1.3400 ha         1 0LK       0.148000
     31 H6           4.0140     0.5910    -0.3440 h1         1 0LK       0.086700
     32 H7           3.4560     0.3670    -3.3040 h1         1 0LK       0.112700
     33 H8           5.5890    -0.4950    -3.7770 hc         1 0LK       0.067200
     34 H9           6.3050     0.2200    -2.3100 hc         1 0LK       0.067200
     35 H10          4.7670     2.3550    -1.5170 hn         1 0LK       0.457800
     36 H11          1.6680    -0.0010    -2.0340 hn         1 0LK       0.343500
     37 H12         -0.1780    -0.1100     2.0300 hn         1 0LK       0.352500
     38 H13         -2.3060    -1.0530    -0.6280 ha         1 0LK       0.170000
     39 H14         -4.7640    -0.8880    -0.6160 ha         1 0LK       0.160000
     40 H15          5.3130     4.3890    -4.2160 hn         1 0LK       0.468800
     41 H16          3.9350     4.6340    -3.3730 hn         1 0LK       0.468800
     42 H17          4.1810     2.8290    -5.4990 hn         1 0LK       0.441400
     43 H2           4.0790    -4.5220     0.2530 ha         1 0LK       0.149000
     44 H263         5.3120     4.2640    -2.5820 hn         1 0LK       0.468800
     45 H3           2.9370    -2.3450     0.4160 ha         1 0LK       0.147000
@<TRIPOS>BOND
     1    11     6 ar
     2    11    10 ar
     3     6     7 ar
     4    10     9 ar
     5     7     8 ar
     6     9     8 ar
     7     9    14 1
     8     8    12 1
     9    27    25 2
    10    14    13 1
    11    15    25 1
    12    15    13 1
    13    25    26 1
    14    12    13 1
    15    12    16 1
    16    16    17 1
    17    17    20 2
    18    17     1 1
    19    19     1 2
    20     1    18 1
    21    18     2 1
    22     2     5 ar
    23     2    21 ar
    24     5     4 ar
    25    21    22 ar
    26     4    24 1
    27     4     3 ar
    28    22     3 ar
    29     3    23 1
    30     5    28 1
    31     6    43 1
    32     7    45 1
    33    10    29 1
    34    11    30 1
    35    12    31 1
    36    13    32 1
    37    14    33 1
    38    14    34 1
    39    15    35 1
    40    16    36 1
    41    18    37 1
    42    21    38 1
    43    22    39 1
    44    26    40 1
    45    26    41 1
    46    27    42 1
    47    44    26 1
@<TRIPOS>SUBSTRUCTURE
     1 0LK         1 TEMP              0 ****  ****    0 ROOT
