@<TRIPOS>MOLECULE
0LK
   47    49     1     0     0
SMALL
bcc


@<TRIPOS>ATOM
      1 C13         -0.0580     0.5150     0.1190 c          1 0LK       0.618100
      2 C15         -2.0500    -0.2220     1.3370 ca         1 0LK      -0.017400
      3 C20         -4.8110    -0.4040     1.8670 ca         1 0LK       0.011400
      4 C21         -4.3080     0.6170     1.0230 ca         1 0LK       0.170900
      5 C22         -2.9280     0.7060     0.7590 ca         1 0LK      -0.159000
      6 C01          4.3560    -0.0860    -5.1710 ca         1 0LK      -0.091000
      7 C02          3.9740    -0.4020    -3.8570 ca         1 0LK      -0.052000
      8 C03          3.9400     0.6200    -2.9190 ca         1 0LK      -0.250300
      9 C04          4.2910     1.9470    -3.2720 ca         1 0LK      -0.120300
     10 C05          4.6630     2.2560    -4.5670 ca         1 0LK      -0.066000
     11 C06          4.6880     1.2210    -5.5220 ca         1 0LK      -0.035000
     12 C07          3.5500     0.5340    -1.4770 c3         1 0LK       0.198800
     13 C08          4.0660     1.9060    -0.8730 c3         1 0LK       0.111500
     14 C09          4.1960     2.8600    -2.0990 c3         1 0LK      -0.057100
     15 N10          5.4230     1.7350    -0.2250 ny         1 0LK      -0.745000
     16 N11          2.0580     0.3850    -1.3460 ny         1 0LK      -0.687800
     17 C12          1.5170     0.3990     0.0580 c          1 0LK       0.477100
     18 N14         -0.6390    -0.1660     1.1210 ns         1 0LK      -0.351100
     19 O16         -0.5090     1.2680    -0.7550 o          1 0LK      -0.520100
     20 O17          2.3340     0.4630     0.9720 o          1 0LK      -0.558100
     21 C18         -2.5470    -1.2440     2.1770 ca         1 0LK      -0.135000
     22 C19         -3.9100    -1.3190     2.4300 ca         1 0LK      -0.075000
     23 Cl          -6.4500    -0.5420     2.2040 cl         1 0LK       0.038600
     24 F24         -5.1270     1.5240     0.4550 f          1 0LK      -0.084900
     25 C25          5.4370     0.9710     1.0730 c2         1 0LK       0.619100
     26 N26          4.8330     1.7020     2.2480 nz         1 0LK      -0.860600
     27 N27          5.9490    -0.1930     1.0700 n2         1 0LK      -0.598100
     28 H1          -2.5820     1.5140     0.0930 ha         1 0LK       0.178000
     29 H4           4.9320     3.2860    -4.8620 ha         1 0LK       0.189000
     30 H5           4.9770     1.4560    -6.5660 ha         1 0LK       0.203000
     31 H6           4.0010    -0.3600    -0.9560 hx         1 0LK       0.116700
     32 H7           3.3720     2.3310    -0.0980 hx         1 0LK       0.104700
     33 H8           5.0650     3.5670    -2.0390 hc         1 0LK       0.124700
     34 H9           3.2670     3.4940    -2.1510 hc         1 0LK       0.124700
     35 H10          5.8450     2.6710    -0.0820 hn         1 0LK       0.515300
     36 H11          1.7890    -0.5080    -1.7980 hn         1 0LK       0.507300
     37 H12         -0.0860    -0.7360     1.7290 hn         1 0LK       0.352500
     38 H13         -1.8780    -1.9870     2.6400 ha         1 0LK       0.151000
     39 H14         -4.2930    -2.1210     3.0900 ha         1 0LK       0.191000
     40 H15          3.8060     1.5620     2.2530 hn         1 0LK       0.506800
     41 H16          5.0410     2.7120     2.2420 hn         1 0LK       0.506800
     42 H17          6.0570    -0.8020     1.8640 hn         1 0LK       0.553400
     43 H2           4.3900    -0.8870    -5.9330 ha         1 0LK       0.201000
     44 H263         5.2160     1.3150     3.1320 hn         1 0LK       0.506800
     45 H102         6.0360     1.2280    -0.9080 hn         1 0LK       0.515300
     46 H112         1.5730     1.1340    -1.8800 hn         1 0LK       0.507300
     47 H3           3.7190    -1.4420    -3.5960 ha         1 0LK       0.163000
@<TRIPOS>BOND
     1     1    17 1   
     2     1    18 1   
     3     1    19 2   
     4     2     5 ar  
     5     2    18 1   
     6     2    21 ar  
     7     3     4 ar  
     8     3    22 ar  
     9     3    23 1   
    10     4     5 ar  
    11     4    24 1   
    12     5    28 1   
    13     6     7 ar  
    14     6    11 ar  
    15     6    43 1   
    16     7     8 ar  
    17     7    47 1   
    18     8     9 ar  
    19     8    12 1   
    20     9    10 ar  
    21     9    14 1   
    22    10    11 ar  
    23    10    29 1   
    24    11    30 1   
    25    12    13 1   
    26    12    16 1   
    27    12    31 1   
    28    13    14 1   
    29    13    15 1   
    30    13    32 1   
    31    14    33 1   
    32    14    34 1   
    33    15    25 1   
    34    15    35 1   
    35    15    45 1   
    36    16    17 1   
    37    16    36 1   
    38    16    46 1   
    39    17    20 2   
    40    18    37 1   
    41    21    22 ar  
    42    21    38 1   
    43    22    39 1   
    44    25    26 1   
    45    25    27 2   
    46    26    40 1   
    47    26    41 1   
    48    26    44 1   
    49    27    42 1   
@<TRIPOS>SUBSTRUCTURE
     1 0LK         1 TEMP              0 ****  ****    0 ROOT
