@<TRIPOS>MOLECULE
molecule
   40    42     1     0     0
SMALL
bcc


@<TRIPOS>ATOM
      1 C13          0.0000     0.0000     0.0000 c          1 0LL       0.599100
      2 C15         -2.0680     0.1030     1.1690 ca         1 0LL       0.056600
      3 C20         -4.8290     0.3200     1.1680 ca         1 0LL      -0.019600
      4 C21         -4.1890    -0.3870     0.1620 ca         1 0LL       0.161900
      5 C22         -2.8110    -0.4920     0.1570 ca         1 0LL      -0.162000
      6 C01          4.7860    -3.5390    -0.1530 ca         1 0LL      -0.104000
      7 C02          4.2680    -2.2680     0.0090 ca         1 0LL      -0.074000
      8 C03          4.1580    -1.4170    -1.0790 ca         1 0LL      -0.154300
      9 C04          4.5690    -1.8410    -2.3280 ca         1 0LL      -0.129300
     10 C05          5.0870    -3.1160    -2.4880 ca         1 0LL      -0.097000
     11 C06          5.2020    -3.9600    -1.4010 ca         1 0LL      -0.092000
     12 C07          3.6330     0.0000    -1.1660 c3         1 0LL       0.169000
     13 C08          4.1690     0.5470    -2.5060 c3         1 0LL       0.072500
     14 C09          4.3430    -0.7410    -3.3420 c3         1 0LL      -0.041100
     15 N10          5.4580     1.2280    -2.3230 nz         1 0LL      -0.799600
     16 N11          2.1680    -0.0000    -1.1670 ns         1 0LL      -0.560900
     17 C12          1.4930     0.0000     0.0000 c          1 0LL       0.606100
     18 N14         -0.6740     0.0000     1.1670 ns         1 0LL      -0.436100
     19 O16         -0.6070     0.0060    -1.0510 o          1 0LL      -0.578100
     20 O17          2.1000    -0.0000     1.0510 o          1 0LL      -0.586100
     21 C18         -2.7120     0.8070     2.1790 ca         1 0LL      -0.155000
     22 C19         -4.0890     0.9130     2.1770 ca         1 0LL      -0.079000
     23 Cl          -6.5590     0.4500     1.1720 cl         1 0LL      -0.063400
     24 F24         -4.9150    -0.9760    -0.8140 f          1 0LL      -0.115900
     25 H1          -2.3110    -1.0450    -0.6290 ha         1 0LL       0.178000
     26 H4           5.4010    -3.4520    -3.4690 ha         1 0LL       0.148000
     27 H5           5.6430    -4.9420    -1.5230 ha         1 0LL       0.159000
     28 H6           4.0140     0.5910    -0.3420 h1         1 0LL       0.085700
     29 H7           3.4420     1.2050    -2.9670 hx         1 0LL       0.127700
     30 H8           5.2020    -0.6510    -3.9950 hc         1 0LL       0.088200
     31 H9           3.4450    -0.9390    -3.9160 hc         1 0LL       0.088200
     32 H10          5.8080     1.5230    -3.2120 hn         1 0LL       0.460133
     33 H11          5.3320     2.0260    -1.7320 hn         1 0LL       0.460133
     34 H13          1.6690     0.0210    -2.0340 hn         1 0LL       0.349500
     35 H14         -0.1790    -0.1130     2.0300 hn         1 0LL       0.352500
     36 H15         -2.1340     1.2720     2.9690 ha         1 0LL       0.145000
     37 H16         -4.5910     1.4630     2.9630 ha         1 0LL       0.161000
     38 H2           4.9090    -4.1870     0.7070 ha         1 0LL       0.160000
     39 H103         6.1080     0.6010    -1.8920 hn         1 0LL       0.460133
     40 H3           3.9540    -1.9330     0.9900 ha         1 0LL       0.162000
@<TRIPOS>BOND
     1    15    13 1   
     2    13    14 1   
     3    13    12 1   
     4    14     9 1   
     5     9    10 ar  
     6     9     8 ar  
     7    10    11 ar  
     8    12     8 1   
     9    12    16 1   
    10    20    17 2   
    11     8     7 ar  
    12    11     6 ar  
    13    17    16 1   
    14    17     1 1   
    15     7     6 ar  
    16     1    18 1   
    17     1    19 2   
    18    18     2 1   
    19    21     2 ar  
    20    21    22 ar  
    21     2     5 ar  
    22    22     3 ar  
    23     5     4 ar  
    24     3     4 ar  
    25     3    23 1   
    26     4    24 1   
    27     5    25 1   
    28     6    38 1   
    29     7    40 1   
    30    10    26 1   
    31    11    27 1   
    32    12    28 1   
    33    13    29 1   
    34    14    30 1   
    35    14    31 1   
    36    15    32 1   
    37    15    33 1   
    38    16    34 1   
    39    18    35 1   
    40    21    36 1   
    41    22    37 1   
    42    39    15 1   
@<TRIPOS>SUBSTRUCTURE
     1 0LL         1 TEMP              0 ****  ****    0 ROOT
