@<TRIPOS>MOLECULE
0LL
   41    43     1     0     0
SMALL
bcc


@<TRIPOS>ATOM
      1 C13         -0.1610     0.1600    -0.3540 c          1 0LL       0.622100
      2 C15         -2.2020     0.1710     1.0210 ca         1 0LL       0.007600
      3 C20         -4.8930    -0.3870     1.6420 ca         1 0LL      -0.000600
      4 C21         -4.3980    -0.6160     0.3370 ca         1 0LL       0.167900
      5 C22         -3.0520    -0.3360     0.0280 ca         1 0LL      -0.162000
      6 C01          4.3990    -1.3180    -4.9800 ca         1 0LL      -0.097000
      7 C02          3.7250    -1.1610    -3.7620 ca         1 0LL      -0.074000
      8 C03          4.0650    -0.0820    -2.9560 ca         1 0LL      -0.216300
      9 C04          5.0740     0.8270    -3.3410 ca         1 0LL      -0.083300
     10 C05          5.7390     0.6690    -4.5460 ca         1 0LL      -0.082000
     11 C06          5.3890    -0.4140    -5.3690 ca         1 0LL      -0.052000
     12 C07          3.5030     0.2620    -1.6130 c3         1 0LL       0.190800
     13 C08          4.2970     1.5550    -1.1690 c3         1 0LL       0.111500
     14 C09          5.2980     1.8780    -2.3130 c3         1 0LL      -0.053100
     15 N10          4.9760     1.3570     0.1480 nz         1 0LL      -0.841600
     16 N11          2.0180     0.4890    -1.6880 ny         1 0LL      -0.682800
     17 C12          1.3420     0.5990    -0.3480 c          1 0LL       0.461100
     18 N14         -0.8370     0.4900     0.7670 ns         1 0LL      -0.365100
     19 O16         -0.5360    -0.4190    -1.3850 o          1 0LL      -0.540100
     20 O17          2.0270     0.9750     0.5930 o          1 0LL      -0.479100
     21 C18         -2.6960     0.3980     2.3260 ca         1 0LL      -0.142000
     22 C19         -4.0240     0.1200     2.6170 ca         1 0LL      -0.075000
     23 Cl          -6.4950    -0.7100     2.0480 cl         1 0LL       0.011600
     24 F24         -5.1890    -1.1030    -0.6400 f          1 0LL      -0.093900
     25 H1          -2.7100    -0.5320    -1.0030 ha         1 0LL       0.182000
     26 H4           6.5290     1.3720    -4.8600 ha         1 0LL       0.179000
     27 H5           5.9100    -0.5520    -6.3340 ha         1 0LL       0.187000
     28 H6           3.6470    -0.5940    -0.8870 hx         1 0LL       0.119700
     29 H7           3.5990     2.4340    -1.0270 hx         1 0LL       0.119700
     30 H8           5.0780     2.9010    -2.7220 hc         1 0LL       0.111200
     31 H9           6.3670     1.8790    -1.9710 hc         1 0LL       0.111200
     32 H10          5.6350     0.5690     0.1000 hn         1 0LL       0.479800
     33 H11          5.5050     2.2080     0.3890 hn         1 0LL       0.479800
     34 H13          1.8110     1.3350    -2.2400 hn         1 0LL       0.496800
     35 H14         -0.3500     0.9330     1.5230 hn         1 0LL       0.355500
     36 H15         -2.0490     0.7960     3.1240 ha         1 0LL       0.151000
     37 H16         -4.4020     0.3020     3.6390 ha         1 0LL       0.183000
     38 H2           4.1430    -2.1690    -5.6360 ha         1 0LL       0.185000
     39 H103         4.2800     1.1740     0.8840 hn         1 0LL       0.479800
     40 H112         1.5880    -0.3110    -2.2000 hn         1 0LL       0.496800
     41 H3           2.9580    -1.8920    -3.4620 ha         1 0LL       0.153000
@<TRIPOS>BOND
     1     1    17 1   
     2     1    18 1   
     3     1    19 2   
     4     2     5 ar  
     5     2    18 1   
     6     2    21 ar  
     7     3     4 ar  
     8     3    22 ar  
     9     3    23 1   
    10     4     5 ar  
    11     4    24 1   
    12     5    25 1   
    13     6     7 ar  
    14     6    11 ar  
    15     6    38 1   
    16     7     8 ar  
    17     7    41 1   
    18     8     9 ar  
    19     8    12 1   
    20     9    10 ar  
    21     9    14 1   
    22    10    11 ar  
    23    10    26 1   
    24    11    27 1   
    25    12    13 1   
    26    12    16 1   
    27    12    28 1   
    28    13    14 1   
    29    13    15 1   
    30    13    29 1   
    31    14    30 1   
    32    14    31 1   
    33    15    32 1   
    34    15    33 1   
    35    15    39 1   
    36    16    17 1   
    37    16    34 1   
    38    16    40 1   
    39    17    20 2   
    40    18    35 1   
    41    21    22 ar  
    42    21    36 1   
    43    22    37 1   
@<TRIPOS>SUBSTRUCTURE
     1 0LL         1 TEMP              0 ****  ****    0 ROOT
