@<TRIPOS>MOLECULE
0LM
   51    52     1     0     0
SMALL
bcc


@<TRIPOS>ATOM
      1 C10          0.1070     1.6090    -0.5990 c          1 0LM       0.441100
      2 C13         -2.0480     1.0110     0.5190 c3         1 0LM       0.150500
      3 C15         -2.1440     0.4440     3.0480 c3         1 0LM       0.206200
      4 C17         -3.6350     2.2780     2.1270 c3         1 0LM       0.206200
      5 C20         -5.1500     2.6190     2.1280 c3         1 0LM      -0.119100
      6 C21         -0.8600     1.0910     3.6040 c3         1 0LM      -0.119100
      7 C22         -2.3350    -0.8690     3.8550 c3         1 0LM      -0.119100
      8 C01          5.2850    -1.3650    -2.0510 ca         1 0LM      -0.075000
      9 C02          5.7650    -1.8150    -0.8150 ca         1 0LM      -0.017600
     10 C03          5.0340    -1.5100     0.3530 ca         1 0LM       0.163900
     11 C04          3.8410    -0.7650     0.2740 ca         1 0LM      -0.172000
     12 C05          3.3770    -0.3240    -0.9730 ca         1 0LM       0.037600
     13 C06          4.1120    -0.6310    -2.1430 ca         1 0LM      -0.154000
     14 N07          2.1850     0.4310    -1.1250 ns         1 0LM      -0.395100
     15 C08          1.3280     0.7760    -0.1290 c          1 0LM       0.616100
     16 O09          1.4030     0.5140     1.0840 o          1 0LM      -0.559100
     17 N11         -0.8650     1.9660     0.4760 ny         1 0LM      -0.674800
     18 O12         -0.1170     1.9940    -1.7360 o          1 0LM      -0.399100
     19 C14         -1.8930    -0.0450     1.6030 c3         1 0LM      -0.110400
     20 N16         -3.3530     1.2750     3.1640 n3         1 0LM      -0.744600
     21 C18         -3.3690     1.7420     0.7030 c3         1 0LM      -0.110400
     22 C19         -2.9110     3.6270     2.3020 c3         1 0LM      -0.119100
     23 C23         -3.5580     1.7770     4.5060 c3         1 0LM       0.158100
     24 Cl           7.1970    -2.7060    -0.7580 cl         1 0LM      -0.018400
     25 F25          5.4520    -1.9190     1.5710 f          1 0LM      -0.104900
     26 H1          -2.0650     0.5030    -0.4950 hx         1 0LM       0.096700
     27 H2          -5.3920     3.1980     1.2050 hc         1 0LM       0.051033
     28 H3          -5.7670     1.6890     2.1470 hc         1 0LM       0.051033
     29 H4          -5.4170     3.2450     3.0110 hc         1 0LM       0.051033
     30 H5          -0.8690     1.0450     4.7220 hc         1 0LM       0.051033
     31 H6          -0.7620     2.1670     3.3290 hc         1 0LM       0.051033
     32 H7           0.0420     0.5360     3.2460 hc         1 0LM       0.051033
     33 H8          -1.4930    -1.5620     3.6170 hc         1 0LM       0.051033
     34 H9          -3.3010    -1.3610     3.5930 hc         1 0LM       0.051033
     35 H10         -2.3210    -0.6720     4.9530 hc         1 0LM       0.051033
     36 H11          5.8500    -1.5980    -2.9710 ha         1 0LM       0.173000
     37 H12          3.3050    -0.5490     1.2130 ha         1 0LM       0.184000
     38 H13          3.7690    -0.2960    -3.1350 ha         1 0LM       0.151000
     39 H14          1.9780     0.7290    -2.0600 hn         1 0LM       0.355500
     40 H15         -0.3770     1.9270     1.3880 hn         1 0LM       0.478300
     41 H16         -0.8770    -0.5210     1.5570 hc         1 0LM       0.090450
     42 H17         -2.6510    -0.8440     1.3620 hc         1 0LM       0.090450
     43 H19         -3.4720     2.5860    -0.0290 hc         1 0LM       0.090450
     44 H20         -4.1710     0.9900     0.4540 hc         1 0LM       0.090450
     45 H21         -1.8070     3.5220     2.4050 hc         1 0LM       0.051033
     46 H22         -3.1340     4.2910     1.4330 hc         1 0LM       0.051033
     47 H23         -3.2820     4.1360     3.2270 hc         1 0LM       0.051033
     48 H24         -3.5470     0.9160     5.2260 h1         1 0LM       0.046700
     49 H25         -4.5650     2.2650     4.5720 h1         1 0LM       0.046700
     50 H26         -2.7760     2.5200     4.8220 h1         1 0LM       0.046700
     51 H112        -1.2190     2.9210     0.3240 hn         1 0LM       0.478300
@<TRIPOS>BOND
     1     1    15 1   
     2     1    17 1   
     3     1    18 2   
     4     2    17 1   
     5     2    19 1   
     6     2    21 1   
     7     2    26 1   
     8     3     6 1   
     9     3     7 1   
    10     3    19 1   
    11     3    20 1   
    12     4     5 1   
    13     4    20 1   
    14     4    21 1   
    15     4    22 1   
    16     5    27 1   
    17     5    28 1   
    18     5    29 1   
    19     6    30 1   
    20     6    31 1   
    21     6    32 1   
    22     7    33 1   
    23     7    34 1   
    24     7    35 1   
    25     8     9 ar  
    26     8    13 ar  
    27     8    36 1   
    28     9    10 ar  
    29     9    24 1   
    30    10    11 ar  
    31    10    25 1   
    32    11    12 ar  
    33    11    37 1   
    34    12    13 ar  
    35    12    14 1   
    36    13    38 1   
    37    14    15 1   
    38    14    39 1   
    39    15    16 2   
    40    17    40 1   
    41    17    51 1   
    42    19    41 1   
    43    19    42 1   
    44    20    23 1   
    45    21    43 1   
    46    21    44 1   
    47    22    45 1   
    48    22    46 1   
    49    22    47 1   
    50    23    48 1   
    51    23    49 1   
    52    23    50 1   
@<TRIPOS>SUBSTRUCTURE
     1 0LM         1 TEMP              0 ****  ****    0 ROOT
