@<TRIPOS>MOLECULE
0LM
   50    51     1     0     0
SMALL
bcc


@<TRIPOS>ATOM
      1 C10          0.0000     0.0000     0.0000 c          1 0LM       0.501100
      2 C13         -2.1420    -0.0000     1.1680 c3         1 0LM       0.008700
      3 C15         -4.1710    -0.6060     2.5130 c3         1 0LM       0.142200
      4 C17         -4.1720     1.4720     1.0980 c3         1 0LM       0.142200
      5 C20         -4.7090     1.0300    -0.2690 c3         1 0LM      -0.013100
      6 C21         -4.6030    -0.9520     3.9550 c3         1 0LM      -0.013100
      7 C22         -4.7070    -1.7160     1.6000 c3         1 0LM      -0.013100
      8 C01          5.6850     0.4430    -2.1400 ca         1 0LM      -0.057000
      9 C02          6.3220    -0.3210    -1.1800 ca         1 0LM      -0.088600
     10 C03          5.5790    -0.9830    -0.2120 ca         1 0LM       0.132900
     11 C04          4.2000    -0.8770    -0.2070 ca         1 0LM      -0.129000
     12 C05          3.5610    -0.1080    -1.1710 ca         1 0LM      -0.071400
     13 C06          4.3080     0.5560    -2.1350 ca         1 0LM      -0.130000
     14 N07          2.1680     0.0000    -1.1680 ns         1 0LM       0.005900
     15 C08          1.4930     0.0000     0.0000 c          1 0LM       0.490100
     16 O09          2.1010     0.0000     1.0500 o          1 0LM      -0.634100
     17 N11         -0.6730    -0.0000     1.1680 ns         1 0LM      -0.140900
     18 O12         -0.6070     0.0050    -1.0500 o          1 0LM      -0.654100
     19 C14         -2.6450    -0.6110     2.4760 c3         1 0LM      -0.067900
     20 N16         -4.7430     0.6760     2.1630 n3         1 0LM      -0.527600
     21 C18         -2.6450     1.4400     1.0790 c3         1 0LM      -0.067900
     22 C19         -4.6030     2.9400     1.3060 c3         1 0LM      -0.013100
     23 C23         -5.0910     1.4780     3.3420 c3         1 0LM       0.140100
     24 F25          6.2030    -1.7290     0.7240 f          1 0LM      -0.118900
     25 H1          -2.5160    -0.5730     0.3280 h1         1 0LM       0.071700
     26 H2          -4.3040     1.6740    -1.0410 hc         1 0LM       0.013867
     27 H3          -4.4120     0.0060    -0.4600 hc         1 0LM       0.013867
     28 H4          -5.7900     1.1000    -0.2710 hc         1 0LM       0.013867
     29 H5          -4.2730    -1.9540     4.2000 hc         1 0LM       0.013867
     30 H6          -5.6820    -0.8980     4.0320 hc         1 0LM       0.013867
     31 H7          -4.1560    -0.2460     4.6450 hc         1 0LM       0.013867
     32 H8          -4.5240    -2.6800     2.0580 hc         1 0LM       0.013867
     33 H9          -5.7720    -1.5810     1.4540 hc         1 0LM       0.013867
     34 H10         -4.2030    -1.6710     0.6420 hc         1 0LM       0.013867
     35 H11          6.2670     0.9600    -2.8930 ha         1 0LM       0.118000
     36 H12          3.6190    -1.3940     0.5480 ha         1 0LM       0.154000
     37 H13          3.8110     1.1560    -2.8880 ha         1 0LM       0.115000
     38 H14          1.6680     0.0470    -2.0340 hn         1 0LM       0.192500
     39 H15         -0.1730    -0.0230     2.0340 hn         1 0LM       0.194500
     40 H16         -2.2900    -1.6320     2.5520 hc         1 0LM       0.029450
     41 H17         -2.2660    -0.0310     3.3090 hc         1 0LM       0.029450
     42 H19         -2.2660     2.0030     1.9230 hc         1 0LM       0.029450
     43 H20         -2.2910     1.8850     0.1570 hc         1 0LM       0.029450
     44 H21         -4.1530     3.3230     2.2140 hc         1 0LM       0.013867
     45 H22         -4.2760     3.5350     0.4620 hc         1 0LM       0.013867
     46 H23         -5.6820     2.9920     1.3880 hc         1 0LM       0.013867
     47 H24         -4.1840     1.8100     3.8330 h1         1 0LM       0.014367
     48 H25         -5.6740     0.8760     4.0290 h1         1 0LM       0.014367
     49 H26         -5.6720     2.3390     3.0350 h1         1 0LM       0.014367
     50 Cl           8.0520    -0.4560    -1.1850 cl         1 0LM       0.006600
@<TRIPOS>BOND
     1     1    15 1   
     2     1    17 1   
     3     1    18 2   
     4     2    17 1   
     5     2    19 1   
     6     2    21 1   
     7     2    25 1   
     8     3     6 1   
     9     3     7 1   
    10     3    19 1   
    11     3    20 1   
    12     4     5 1   
    13     4    20 1   
    14     4    21 1   
    15     4    22 1   
    16     5    26 1   
    17     5    27 1   
    18     5    28 1   
    19     6    29 1   
    20     6    30 1   
    21     6    31 1   
    22     7    32 1   
    23     7    33 1   
    24     7    34 1   
    25     8     9 ar  
    26     8    13 ar  
    27     8    35 1   
    28     9    10 ar  
    29     9    50 1   
    30    10    11 ar  
    31    10    24 1   
    32    11    12 ar  
    33    11    36 1   
    34    12    13 ar  
    35    12    14 1   
    36    13    37 1   
    37    14    15 1   
    38    14    38 1   
    39    15    16 2   
    40    17    39 1   
    41    19    40 1   
    42    19    41 1   
    43    20    23 1   
    44    21    42 1   
    45    21    43 1   
    46    22    44 1   
    47    22    45 1   
    48    22    46 1   
    49    23    47 1   
    50    23    48 1   
    51    23    49 1   
@<TRIPOS>SUBSTRUCTURE
     1 0LM         1 TEMP              0 ****  ****    0 ROOT
