@<TRIPOS>MOLECULE
0LO
   23    24     1     0     0
SMALL
bcc


@<TRIPOS>ATOM
      1 CAF          0.0000     0.0000     0.0000 ca         1 0LO      -0.112500
      2 CAD          1.3800     0.0000     0.0000 ca         1 0LO      -0.104500
      3 CAC          2.0730     0.0000     1.1970 ca         1 0LO      -0.130000
      4 CAE          1.3890    -0.0000     2.4000 ca         1 0LO      -0.104500
      5 CAG          0.0090     0.0010     2.4100 ca         1 0LO      -0.112500
      6 CAN         -0.6950     0.0010     1.2080 cp         1 0LO       0.015000
      7 CAO         -2.1790     0.0080     1.2140 cp         1 0LO      -0.207300
      8 CAJ         -2.8810     0.0090     2.4180 ca         1 0LO      -0.041000
      9 CAI         -2.8900     0.0190     0.0140 ca         1 0LO       0.378200
     10 NAK         -4.2080     0.0260     0.0080 nb         1 0LO      -0.629000
     11 CAH         -4.9110     0.0210     1.1220 ca         1 0LO       0.430200
     12 CAM         -4.2800     0.0160     2.3670 ca         1 0LO      -0.216900
     13 CAL         -5.0750     0.0170     3.6120 c          1 0LO       0.977200
     14 OAB         -6.4210     0.0230     3.5520 o          1 0LO      -0.879800
     15 OAA         -4.5160     0.0120     4.6910 o          1 0LO      -0.879800
     16 H1          -0.5430     0.0000    -0.9380 ha         1 0LO       0.119000
     17 H2           1.9210    -0.0000    -0.9390 ha         1 0LO       0.093000
     18 H3           3.1570    -0.0000     1.1930 ha         1 0LO       0.091000
     19 H4           1.9370    -0.0000     3.3340 ha         1 0LO       0.093000
     20 H5          -0.5270    -0.0010     3.3520 ha         1 0LO       0.119000
     21 H6          -2.3740    -0.2430     3.3410 ha         1 0LO       0.130000
     22 H7          -2.3520     0.0230    -0.9260 h4         1 0LO      -0.033900
     23 H8          -5.9930     0.0220     1.0720 h4         1 0LO       0.007100
@<TRIPOS>BOND
     1     1     2 ar  
     2     1     6 ar  
     3     1    16 1   
     4     2     3 ar  
     5     2    17 1   
     6     3     4 ar  
     7     3    18 1   
     8     4     5 ar  
     9     4    19 1   
    10     5     6 ar  
    11     5    20 1   
    12     6     7 1   
    13     7     8 ar  
    14     7     9 ar  
    15     8    12 ar  
    16     8    21 1   
    17     9    10 ar  
    18     9    22 1   
    19    10    11 ar  
    20    11    12 ar  
    21    11    23 1   
    22    12    13 1   
    23    13    14 1   
    24    13    15 1   
@<TRIPOS>SUBSTRUCTURE
     1 0LO         1 TEMP              0 ****  ****    0 ROOT
