@<TRIPOS>MOLECULE
0LO
   23    24     1     0     0
SMALL
bcc


@<TRIPOS>ATOM
      1 CAF          0.0560    -0.3740     0.0790 ca         1 0LO      -0.128500
      2 CAD          1.4490    -0.3670     0.0640 ca         1 0LO      -0.135500
      3 CAC          2.1600     0.0650     1.1830 ca         1 0LO      -0.151000
      4 CAE          1.4710     0.4890     2.3180 ca         1 0LO      -0.135500
      5 CAG          0.0780     0.4840     2.3370 ca         1 0LO      -0.128500
      6 CAN         -0.6480     0.0540     1.2150 cp         1 0LO       0.007000
      7 CAO         -2.1040     0.0540     1.2350 cp         1 0LO      -0.203300
      8 CAJ         -2.8240    -0.2330     2.4070 ca         1 0LO      -0.062000
      9 CAI         -2.8450     0.3520     0.0680 ca         1 0LO       0.379200
     10 NAK         -4.1890     0.3730     0.0190 nb         1 0LO      -0.707000
     11 CAH         -4.8540     0.0920     1.1570 ca         1 0LO       0.413200
     12 CAM         -4.2190    -0.2140     2.3780 ca         1 0LO      -0.235900
     13 CAL         -5.0360    -0.5110     3.6260 c          1 0LO       0.913200
     14 OAB         -6.2940    -0.5110     3.5160 o          1 0LO      -0.825300
     15 OAA         -4.4080    -0.7370     4.6970 o          1 0LO      -0.825300
     16 H1          -0.5000    -0.7270    -0.8030 ha         1 0LO       0.139500
     17 H2           1.9870    -0.7070    -0.8320 ha         1 0LO       0.119000
     18 H3           3.2590     0.0690     1.1700 ha         1 0LO       0.116000
     19 H4           2.0270     0.8270     3.2040 ha         1 0LO       0.119000
     20 H5          -0.4640     0.8190     3.2360 ha         1 0LO       0.139500
     21 H6          -2.3170    -0.4820     3.3530 ha         1 0LO       0.159000
     22 H7          -2.3270     0.5970    -0.8750 h4         1 0LO      -0.005900
     23 H8          -5.9600     0.1080     1.1160 h4         1 0LO       0.040100
@<TRIPOS>BOND
     1     1     2 ar  
     2     1     6 ar  
     3     1    16 1   
     4     2     3 ar  
     5     2    17 1   
     6     3     4 ar  
     7     3    18 1   
     8     4     5 ar  
     9     4    19 1   
    10     5     6 ar  
    11     5    20 1   
    12     6     7 1   
    13     7     8 ar  
    14     7     9 ar  
    15     8    12 ar  
    16     8    21 1   
    17     9    10 ar  
    18     9    22 1   
    19    10    11 ar  
    20    11    12 ar  
    21    11    23 1   
    22    12    13 1   
    23    13    14 1   
    24    13    15 1   
@<TRIPOS>SUBSTRUCTURE
     1 0LO         1 TEMP              0 ****  ****    0 ROOT
