@<TRIPOS>MOLECULE
molecule
   23    24     1     0     0
SMALL
bcc


@<TRIPOS>ATOM
      1 CAF          0.0000     0.0000     0.0000 ca         1 0LO      -0.129500
      2 CAD          1.3800     0.0000     0.0000 ca         1 0LO      -0.132000
      3 CAC          2.0730     0.0000     1.1970 ca         1 0LO      -0.152000
      4 CAE          1.3890    -0.0000     2.4000 ca         1 0LO      -0.132000
      5 CAG          0.0090     0.0010     2.4100 ca         1 0LO      -0.129500
      6 CAN         -0.6950     0.0010     1.2080 cp         1 0LO       0.001000
      7 CAO         -2.1790     0.0080     1.2140 cp         1 0LO      -0.207300
      8 CAJ         -2.8810     0.0090     2.4180 ca         1 0LO      -0.063000
      9 CAI         -2.8900     0.0190     0.0140 ca         1 0LO       0.401200
     10 NAK         -4.2080     0.0260     0.0080 nb         1 0LO      -0.728000
     11 CAH         -4.9110     0.0210     1.1220 ca         1 0LO       0.443200
     12 CAM         -4.2800     0.0160     2.3670 ca         1 0LO      -0.221900
     13 CAL         -5.0750     0.0170     3.6120 c          1 0LO       0.884200
     14 OAB         -6.4210     0.0230     3.5520 o          1 0LO      -0.832300
     15 OAA         -4.5160     0.0120     4.6910 o          1 0LO      -0.832300
     16 H1          -0.5430     0.0000    -0.9380 ha         1 0LO       0.139000
     17 H2           1.9210    -0.0000    -0.9390 ha         1 0LO       0.118500
     18 H3           3.1570    -0.0000     1.1930 ha         1 0LO       0.114000
     19 H4           1.9370    -0.0000     3.3340 ha         1 0LO       0.118500
     20 H5          -0.5270    -0.0010     3.3520 ha         1 0LO       0.139000
     21 H6          -2.3740    -0.2430     3.3410 ha         1 0LO       0.153000
     22 H7          -2.3520     0.0230    -0.9260 h4         1 0LO      -0.001900
     23 H8          -5.9930     0.0220     1.0720 h4         1 0LO       0.049100
@<TRIPOS>BOND
     1     3     4 ar  
     2     3     2 ar  
     3     4     5 ar  
     4     2     1 ar  
     5     5     6 ar  
     6     1     6 ar  
     7     6     7 1   
     8     7     8 ar  
     9     7     9 ar  
    10     8    12 ar  
    11     9    10 ar  
    12    12    13 1   
    13    12    11 ar  
    14    15    13 1   
    15    10    11 ar  
    16    13    14 1   
    17     1    16 1   
    18     2    17 1   
    19     3    18 1   
    20     4    19 1   
    21     5    20 1   
    22     8    21 1   
    23     9    22 1   
    24    11    23 1   
@<TRIPOS>SUBSTRUCTURE
     1 0LO         1 TEMP              0 ****  ****    0 ROOT
