@<TRIPOS>MOLECULE
0LP
   53    54     1     0     0
SMALL
bcc


@<TRIPOS>ATOM
      1 CAA          0.0000     0.0000     0.0000 c3         1 0LP      -0.068100
      2 CAT          1.5070     0.0000     0.0000 c          1 0LP       0.553100
      3 OAB          2.1130     0.0000     1.0500 o          1 0LP      -0.638100
      4 NAR          2.1800     0.0010    -1.1670 ns         1 0LP      -0.181900
      5 CBB          3.6460     0.0020    -1.1680 c3         1 0LP      -0.041300
      6 CAZ          4.1610     1.4390    -1.0410 c3         1 0LP       0.264300
      7 OAG          3.9540     1.9050     0.2940 oh         1 0LP      -0.556800
      8 CBC          4.1630    -0.5800    -2.4890 c3         1 0LP       0.158100
      9 CBA          3.6120    -1.9950    -2.6820 c3         1 0LP       0.189100
     10 OAH          2.1850    -1.9490    -2.7110 oh         1 0LP      -0.591800
     11 CAY          4.1310    -2.5690    -4.0000 c3         1 0LP       0.156100
     12 OAF          3.8030    -1.6800    -5.0700 oh         1 0LP      -0.577800
     13 CAP          3.4830    -3.9320    -4.2530 c3         1 0LP       0.178400
     14 OAD          4.0530    -4.5210    -5.4240 oh         1 0LP      -0.592800
     15 OAS          5.5920    -0.6230    -2.4330 os         1 0LP      -0.280900
     16 CAW          6.2370     0.4910    -2.0110 ce         1 0LP       0.112900
     17 CAU          7.6790     0.6160    -2.2900 c          1 0LP       0.986800
     18 OAE          8.5800     0.2130    -1.3720 o          1 0LP      -0.869300
     19 OAC          8.0560     1.0830    -3.3460 o          1 0LP      -0.869300
     20 CAV          5.6320     1.4740    -1.3620 c2         1 0LP      -0.326400
     21 CAQ          6.4420     2.6690    -0.9290 c3         1 0LP       0.070000
     22 CAI          6.3320     3.7540    -1.9680 c2         1 0LP      -0.068200
     23 CAJ          5.9250     4.9660    -1.6200 ce         1 0LP      -0.192200
     24 CAX          5.8170     6.0310    -2.6390 ca         1 0LP      -0.010800
     25 CAN          6.1370     5.7620    -3.9710 ca         1 0LP      -0.113500
     26 CAL          6.0340     6.7610    -4.9170 ca         1 0LP      -0.103000
     27 CAK          5.6150     8.0260    -4.5490 ca         1 0LP      -0.133000
     28 CAM          5.2960     8.3000    -3.2310 ca         1 0LP      -0.103000
     29 CAO          5.3890     7.3080    -2.2760 ca         1 0LP      -0.113500
     30 H1          -0.3610    -1.0130    -0.1300 hc         1 0LP       0.013700
     31 H2          -0.3610     0.6190    -0.8120 hc         1 0LP       0.013700
     32 H3          -0.3610     0.3940     0.9420 hc         1 0LP       0.013700
     33 H4           1.6800     0.0490    -2.0330 hn         1 0LP       0.187500
     34 H5           4.0160    -0.5910    -0.3400 h1         1 0LP       0.082700
     35 H6           3.6270     2.0750    -1.7360 h1         1 0LP      -0.011300
     36 H7           3.4290     2.6880     0.2760 ho         1 0LP       0.370000
     37 H8           3.8520     0.0530    -3.3110 h1         1 0LP       0.042700
     38 H9           3.9370    -2.6230    -1.8610 h1         1 0LP       0.018700
     39 H10          1.8370    -2.7750    -2.4180 ho         1 0LP       0.385000
     40 H11          5.2070    -2.6860    -3.9450 h1         1 0LP       0.045700
     41 H12          4.2700    -1.9380    -5.8480 ho         1 0LP       0.399000
     42 H13          3.6580    -4.5790    -3.4020 h1         1 0LP      -0.009300
     43 H14          2.4170    -3.8040    -4.3970 h1         1 0LP      -0.009300
     44 H15          3.7230    -5.3990    -5.5270 ho         1 0LP       0.385000
     45 H17          6.0670     3.0360     0.0180 hc         1 0LP       0.046200
     46 H18          7.4800     2.3800    -0.8180 hc         1 0LP       0.046200
     47 H19          6.6140     3.5510    -2.9940 ha         1 0LP       0.127000
     48 H20          5.6950     5.1840    -0.5840 ha         1 0LP       0.106000
     49 H21          6.4660     4.7710    -4.2600 ha         1 0LP       0.115500
     50 H22          6.2830     6.5530    -5.9510 ha         1 0LP       0.093000
     51 H23          5.5380     8.8070    -5.2960 ha         1 0LP       0.090000
     52 H24          4.9660     9.2930    -2.9500 ha         1 0LP       0.093000
     53 H25          5.1390     7.5230    -1.2440 ha         1 0LP       0.115500
@<TRIPOS>BOND
     1     1     2 1   
     2     1    30 1   
     3     1    31 1   
     4     1    32 1   
     5     2     3 2   
     6     2     4 1   
     7     4     5 1   
     8     4    33 1   
     9     5     6 1   
    10     5     8 1   
    11     5    34 1   
    12     6     7 1   
    13     6    20 1   
    14     6    35 1   
    15     7    36 1   
    16     8     9 1   
    17     8    15 1   
    18     8    37 1   
    19     9    10 1   
    20     9    11 1   
    21     9    38 1   
    22    10    39 1   
    23    11    12 1   
    24    11    13 1   
    25    11    40 1   
    26    12    41 1   
    27    13    14 1   
    28    13    42 1   
    29    13    43 1   
    30    14    44 1   
    31    15    16 1   
    32    16    17 1   
    33    16    20 2   
    34    17    18 1   
    35    17    19 1   
    36    20    21 1   
    37    21    22 1   
    38    21    45 1   
    39    21    46 1   
    40    22    23 2   
    41    22    47 1   
    42    23    24 1   
    43    23    48 1   
    44    24    25 ar  
    45    24    29 ar  
    46    25    26 ar  
    47    25    49 1   
    48    26    27 ar  
    49    26    50 1   
    50    27    28 ar  
    51    27    51 1   
    52    28    29 ar  
    53    28    52 1   
    54    29    53 1   
@<TRIPOS>SUBSTRUCTURE
     1 0LP         1 TEMP              0 ****  ****    0 ROOT
