@<TRIPOS>MOLECULE
molecule
   53    54     1     0     0
SMALL
bcc


@<TRIPOS>ATOM
      1 CAA          0.0000     0.0000     0.0000 c3         1 0LP      -0.171100
      2 CAT          1.5070     0.0000     0.0000 c          1 0LP       0.644100
      3 OAB          2.1130     0.0000     1.0500 o          1 0LP      -0.597100
      4 NAR          2.1800     0.0010    -1.1670 ns         1 0LP      -0.572900
      5 CBB          3.6460     0.0020    -1.1680 c3         1 0LP       0.073700
      6 CAZ          4.1610     1.4390    -1.0410 c3         1 0LP       0.198300
      7 OAG          3.9540     1.9050     0.2940 oh         1 0LP      -0.577800
      8 CBC          4.1630    -0.5800    -2.4890 c3         1 0LP       0.136100
      9 CBA          3.6120    -1.9950    -2.6820 c3         1 0LP       0.160100
     10 OAH          2.1850    -1.9490    -2.7110 oh         1 0LP      -0.603800
     11 CAY          4.1310    -2.5690    -4.0000 c3         1 0LP       0.132100
     12 OAF          3.8030    -1.6800    -5.0700 oh         1 0LP      -0.594800
     13 CAP          3.4830    -3.9320    -4.2530 c3         1 0LP       0.105400
     14 OAD          4.0530    -4.5210    -5.4240 oh         1 0LP      -0.608800
     15 OAS          5.5920    -0.6230    -2.4330 os         1 0LP      -0.312900
     16 CAW          6.2370     0.4910    -2.0110 ce         1 0LP       0.103900
     17 CAU          7.6790     0.6160    -2.2900 c          1 0LP       0.896800
     18 OAE          8.5800     0.2130    -1.3720 o          1 0LP      -0.810800
     19 OAC          8.0560     1.0830    -3.3460 o          1 0LP      -0.810800
     20 CAV          5.6320     1.4740    -1.3620 c2         1 0LP      -0.295400
     21 CAQ          6.4420     2.6690    -0.9290 c3         1 0LP       0.011000
     22 CAI          6.3320     3.7540    -1.9680 c2         1 0LP      -0.089200
     23 CAJ          5.9250     4.9660    -1.6200 ce         1 0LP      -0.201200
     24 CAX          5.8170     6.0310    -2.6390 ca         1 0LP      -0.020800
     25 CAN          6.1370     5.7620    -3.9710 ca         1 0LP      -0.133500
     26 CAL          6.0340     6.7610    -4.9170 ca         1 0LP      -0.130000
     27 CAK          5.6150     8.0260    -4.5490 ca         1 0LP      -0.154000
     28 CAM          5.2960     8.3000    -3.2310 ca         1 0LP      -0.130000
     29 CAO          5.3890     7.3080    -2.2760 ca         1 0LP      -0.133500
     30 H1          -0.3610     0.2760     0.9830 hc         1 0LP       0.050367
     31 H2          -0.3610    -0.9900    -0.2530 hc         1 0LP       0.050367
     32 H3          -0.3610     0.7140    -0.7300 hc         1 0LP       0.050367
     33 H4           1.6800     0.0550    -2.0330 hn         1 0LP       0.323500
     34 H5           4.0160    -0.5910    -0.3400 h1         1 0LP       0.104700
     35 H6           3.6270     2.0750    -1.7360 h1         1 0LP       0.023700
     36 H7           3.4650     2.7110     0.2740 ho         1 0LP       0.385000
     37 H8           3.8520     0.0530    -3.3110 h1         1 0LP       0.072700
     38 H9           3.9370    -2.6230    -1.8610 h1         1 0LP       0.053700
     39 H10          1.8370    -2.7500    -2.3560 ho         1 0LP       0.396000
     40 H11          5.2070    -2.6860    -3.9450 h1         1 0LP       0.078700
     41 H12          4.4550    -1.7480    -5.7470 ho         1 0LP       0.413000
     42 H13          3.6580    -4.5790    -3.4020 h1         1 0LP       0.023700
     43 H14          2.4170    -3.8040    -4.3960 h1         1 0LP       0.023700
     44 H15          3.7520    -5.4110    -5.5060 ho         1 0LP       0.395000
     45 H17          7.4800     2.3800    -0.8180 hc         1 0LP       0.074700
     46 H18          6.0670     3.0360     0.0180 hc         1 0LP       0.074700
     47 H19          6.5850     3.5430    -3.0000 ha         1 0LP       0.146000
     48 H20          5.6720     5.1770    -0.5880 ha         1 0LP       0.122000
     49 H21          6.4660     4.7710    -4.2600 ha         1 0LP       0.137500
     50 H22          6.2830     6.5530    -5.9510 ha         1 0LP       0.118000
     51 H23          5.5380     8.8070    -5.2960 ha         1 0LP       0.113000
     52 H24          4.9660     9.2930    -2.9500 ha         1 0LP       0.118000
     53 H25          5.1390     7.5230    -1.2440 ha         1 0LP       0.137500
@<TRIPOS>BOND
     1     1     2 1
     2    12    11 1
     3    13    14 1
     4    13    11 1
     5     4     2 1
     6     4     5 1
     7     2     3 2
     8    11     9 1
     9     8     5 1
    10     8     9 1
    11     8    15 1
    12     5     6 1
    13     6     7 1
    14     6    20 1
    15     9    10 1
    16    15    16 1
    17    20    21 1
    18    20    16 2
    19    21    22 1
    20    16    17 1
    21    19    17 1
    22    17    18 1
    23    23    22 2
    24    23    24 1
    25    24    29 ar
    26    24    25 ar
    27    29    28 ar
    28    25    26 ar
    29    28    27 ar
    30    26    27 ar
    31     1    30 1
    32     1    31 1
    33     1    32 1
    34     4    33 1
    35     5    34 1
    36     6    35 1
    37     7    36 1
    38     8    37 1
    39     9    38 1
    40    10    39 1
    41    11    40 1
    42    12    41 1
    43    13    42 1
    44    13    43 1
    45    14    44 1
    46    21    45 1
    47    21    46 1
    48    22    47 1
    49    23    48 1
    50    25    49 1
    51    26    50 1
    52    27    51 1
    53    28    52 1
    54    29    53 1
@<TRIPOS>SUBSTRUCTURE
     1 0LP         1 TEMP              0 ****  ****    0 ROOT
