@<TRIPOS>MOLECULE
0LQ
   66    71     1     0     0
SMALL
bcc


@<TRIPOS>ATOM
      1 C1           0.1630    -0.1350     0.0970 c3         1 0LQ       0.065200
      2 N1           1.5840    -0.2250    -0.1190 n          1 0LQ      -0.463800
      3 C2           2.3370    -0.4490     1.0320 c          1 0LQ       0.640500
      4 O1           3.5700    -0.5750     1.0150 o          1 0LQ      -0.579000
      5 C3           1.5930    -0.5160     2.3910 c          1 0LQ       0.640500
      6 O2           2.1870    -0.0970     3.3950 o          1 0LQ      -0.579000
      7 N2           0.3060    -1.0370     2.4050 n          1 0LQ      -0.463800
      8 C4          -0.4390    -1.4250     3.5940 c3         1 0LQ       0.213800
      9 C5           0.3620    -2.2470     4.5800 ca         1 0LQ      -0.104550
     10 C6           1.1720    -1.6590     5.5540 ca         1 0LQ      -0.114000
     11 C7           1.8610    -2.4570     6.4680 ca         1 0LQ      -0.132750
     12 C8           1.7480    -3.8450     6.4120 ca         1 0LQ      -0.122750
     13 C9           0.9470    -4.4370     5.4360 ca         1 0LQ      -0.132750
     14 C10          0.2580    -3.6430     4.5220 ca         1 0LQ      -0.114000
     15 C11         -1.1470    -0.2800     4.2900 ca         1 0LQ      -0.104550
     16 C12         -0.5350     0.9510     4.5420 ca         1 0LQ      -0.114000
     17 C13         -1.2390     1.9660     5.1900 ca         1 0LQ      -0.132750
     18 C14         -2.5570     1.7610     5.5940 ca         1 0LQ      -0.122750
     19 C15         -3.1730     0.5340     5.3480 ca         1 0LQ      -0.132750
     20 C16         -2.4740    -0.4800     4.6960 ca         1 0LQ      -0.114000
     21 C17         -0.2900    -1.2580     1.1080 c3         1 0LQ       0.065200
     22 C18         -1.8320    -1.2300     0.9400 c3         1 0LQ       0.140800
     23 N3          -2.1100    -0.7830    -0.4280 n7         1 0LQ      -0.794200
     24 C19         -0.8590    -0.3430    -1.0490 c3         1 0LQ       0.140800
     25 C20          2.2360     0.0650    -1.3850 c3         1 0LQ       0.213800
     26 C21          2.1780    -1.0390    -2.4200 ca         1 0LQ      -0.104550
     27 C22          2.7420    -0.7760    -3.6780 ca         1 0LQ      -0.114000
     28 C23          2.7920    -1.7680    -4.6540 ca         1 0LQ      -0.132750
     29 C24          2.2860    -3.0400    -4.3850 ca         1 0LQ      -0.122750
     30 C25          1.7360    -3.3120    -3.1350 ca         1 0LQ      -0.132750
     31 C26          1.6850    -2.3190    -2.1550 ca         1 0LQ      -0.114000
     32 C27          1.8020     1.4030    -1.9490 ca         1 0LQ      -0.104550
     33 C28          2.3400     2.5660    -1.3840 ca         1 0LQ      -0.114000
     34 C29          1.9820     3.8180    -1.8790 ca         1 0LQ      -0.132750
     35 C30          1.0830     3.9200    -2.9420 ca         1 0LQ      -0.122750
     36 C31          0.5460     2.7650    -3.5080 ca         1 0LQ      -0.132750
     37 C32          0.9010     1.5100    -3.0130 ca         1 0LQ      -0.114000
     38 H1          -0.0540     0.8820     0.5500 h1         1 0LQ       0.062200
     39 H2          -1.2610    -2.1170     3.2090 h1         1 0LQ       0.082700
     40 H3           1.2830    -0.5630     5.5850 ha         1 0LQ       0.141250
     41 H4           2.5000    -1.9860     7.2300 ha         1 0LQ       0.133875
     42 H5           2.2920    -4.4730     7.1330 ha         1 0LQ       0.132750
     43 H6           0.8590    -5.5320     5.3840 ha         1 0LQ       0.133875
     44 H7          -0.3700    -4.1190     3.7530 ha         1 0LQ       0.141250
     45 H8           0.5110     1.1240     4.2390 ha         1 0LQ       0.141250
     46 H9          -0.7470     2.9310     5.3840 ha         1 0LQ       0.133875
     47 H10         -3.1090     2.5620     6.1070 ha         1 0LQ       0.132750
     48 H11         -4.2110     0.3640     5.6680 ha         1 0LQ       0.133875
     49 H12         -2.9680    -1.4460     4.5090 ha         1 0LQ       0.141250
     50 H13          0.0680    -2.2650     0.7280 h1         1 0LQ       0.062200
     51 H14         -2.3120    -0.5740     1.7170 h1         1 0LQ       0.065450
     52 H15         -2.2480    -2.2680     1.0490 h1         1 0LQ       0.065450
     53 H16         -2.7760    -0.0330    -0.4140 hn         1 0LQ       0.359800
     54 H18         -0.5150    -1.1520    -1.7520 h1         1 0LQ       0.065450
     55 H19         -0.9930     0.6040    -1.6350 h1         1 0LQ       0.065450
     56 H20          3.3500     0.1630    -1.1390 h1         1 0LQ       0.082700
     57 H21          3.1470     0.2260    -3.8930 ha         1 0LQ       0.141250
     58 H22          3.2360    -1.5470    -5.6350 ha         1 0LQ       0.133875
     59 H23          2.3270    -3.8240    -5.1550 ha         1 0LQ       0.132750
     60 H24          1.3420    -4.3150    -2.9130 ha         1 0LQ       0.133875
     61 H25          1.2590    -2.5700    -1.1720 ha         1 0LQ       0.141250
     62 H26          3.0530     2.4900    -0.5480 ha         1 0LQ       0.141250
     63 H27          2.4100     4.7270    -1.4310 ha         1 0LQ       0.133875
     64 H28          0.8030     4.9090    -3.3340 ha         1 0LQ       0.132750
     65 H29         -0.1600     2.8400    -4.3480 ha         1 0LQ       0.133875
     66 H30          0.4810     0.6000    -3.4700 ha         1 0LQ       0.141250
@<TRIPOS>BOND
     1     1     2 1   
     2     1    21 1   
     3     1    24 1   
     4     1    38 1   
     5     2     3 1   
     6     2    25 1   
     7     3     4 2   
     8     3     5 1   
     9     5     6 2   
    10     5     7 1   
    11     7     8 1   
    12     7    21 1   
    13     8     9 1   
    14     8    15 1   
    15     8    39 1   
    16     9    10 ar  
    17     9    14 ar  
    18    10    11 ar  
    19    10    40 1   
    20    11    12 ar  
    21    11    41 1   
    22    12    13 ar  
    23    12    42 1   
    24    13    14 ar  
    25    13    43 1   
    26    14    44 1   
    27    15    16 ar  
    28    15    20 ar  
    29    16    17 ar  
    30    16    45 1   
    31    17    18 ar  
    32    17    46 1   
    33    18    19 ar  
    34    18    47 1   
    35    19    20 ar  
    36    19    48 1   
    37    20    49 1   
    38    21    22 1   
    39    21    50 1   
    40    22    23 1   
    41    22    51 1   
    42    22    52 1   
    43    23    24 1   
    44    23    53 1   
    45    24    54 1   
    46    24    55 1   
    47    25    26 1   
    48    25    32 1   
    49    25    56 1   
    50    26    27 ar  
    51    26    31 ar  
    52    27    28 ar  
    53    27    57 1   
    54    28    29 ar  
    55    28    58 1   
    56    29    30 ar  
    57    29    59 1   
    58    30    31 ar  
    59    30    60 1   
    60    31    61 1   
    61    32    33 ar  
    62    32    37 ar  
    63    33    34 ar  
    64    33    62 1   
    65    34    35 ar  
    66    34    63 1   
    67    35    36 ar  
    68    35    64 1   
    69    36    37 ar  
    70    36    65 1   
    71    37    66 1   
@<TRIPOS>SUBSTRUCTURE
     1 0LQ         1 TEMP              0 ****  ****    0 ROOT
