@<TRIPOS>MOLECULE
molecule
   66    71     1     0     0
SMALL
bcc


@<TRIPOS>ATOM
      1 C1           0.0000     0.0000     0.0000 c3         1 0LQ       0.071700
      2 N1           1.4500     0.0000     0.0000 n          1 0LQ      -0.491800
      3 C2           2.0260     0.0000     1.2410 c          1 0LQ       0.632500
      4 O1           3.2320    -0.0440     1.3660 o          1 0LQ      -0.558500
      5 C3           1.1290     0.0550     2.4460 c          1 0LQ       0.632500
      6 O2           1.5030     0.5790     3.4750 o          1 0LQ      -0.558500
      7 N2          -0.1190    -0.5000     2.3590 n          1 0LQ      -0.491800
      8 C4          -1.0450    -0.5380     3.4940 c3         1 0LQ       0.227800
      9 C5          -1.8380    -1.8180     3.4510 ca         1 0LQ      -0.090050
     10 C6          -3.1610    -1.8250     3.8520 ca         1 0LQ      -0.111250
     11 C7          -3.8890    -3.0000     3.8130 ca         1 0LQ      -0.124375
     12 C8          -3.2940    -4.1660     3.3730 ca         1 0LQ      -0.122000
     13 C9          -1.9720    -4.1600     2.9710 ca         1 0LQ      -0.124375
     14 C10         -1.2450    -2.9840     3.0060 ca         1 0LQ      -0.111250
     15 C11         -0.2630    -0.4730     4.7810 ca         1 0LQ      -0.090050
     16 C12          0.6440    -1.4690     5.0900 ca         1 0LQ      -0.111250
     17 C13          1.3640    -1.4070     6.2680 ca         1 0LQ      -0.124375
     18 C14          1.1760    -0.3480     7.1380 ca         1 0LQ      -0.122000
     19 C15          0.2690     0.6470     6.8290 ca         1 0LQ      -0.124375
     20 C16         -0.4510     0.5850     5.6500 ca         1 0LQ      -0.111250
     21 C17         -0.4560    -1.0470     1.0570 c3         1 0LQ       0.071700
     22 C18         -1.9420    -1.1620     0.7110 c3         1 0LQ       0.142300
     23 N3          -1.9520    -1.1620    -0.7810 n7         1 0LQ      -0.802200
     24 C19         -0.7170    -0.4820    -1.2550 c3         1 0LQ       0.142300
     25 C20          2.2390     0.0000    -1.2350 c3         1 0LQ       0.227800
     26 C21          1.4510     0.6660    -2.3330 ca         1 0LQ      -0.090050
     27 C22          1.3670     0.0740    -3.5800 ca         1 0LQ      -0.111250
     28 C23          0.6450     0.6850    -4.5880 ca         1 0LQ      -0.124375
     29 C24          0.0070     1.8880    -4.3500 ca         1 0LQ      -0.122000
     30 C25          0.0910     2.4800    -3.1040 ca         1 0LQ      -0.124375
     31 C26          0.8090     1.8670    -2.0940 ca         1 0LQ      -0.111250
     32 C27          3.5240     0.7540    -1.0100 ca         1 0LQ      -0.090050
     33 C28          4.7210     0.2280    -1.4590 ca         1 0LQ      -0.111250
     34 C29          5.9010     0.9190    -1.2520 ca         1 0LQ      -0.124375
     35 C30          5.8820     2.1360    -0.5970 ca         1 0LQ      -0.122000
     36 C31          4.6850     2.6620    -0.1480 ca         1 0LQ      -0.124375
     37 C32          3.5060     1.9730    -0.3600 ca         1 0LQ      -0.111250
     38 H1          -0.3660     0.9810     0.2760 h1         1 0LQ       0.069700
     39 H2          -1.7200     0.3080     3.4380 h1         1 0LQ       0.062200
     40 H3          -3.6270    -0.9100     4.1970 ha         1 0LQ       0.130750
     41 H4          -4.9260    -3.0060     4.1280 ha         1 0LQ       0.131000
     42 H5          -3.8640    -5.0870     3.3440 ha         1 0LQ       0.130000
     43 H6          -1.5070    -5.0750     2.6240 ha         1 0LQ       0.131000
     44 H7          -0.2090    -2.9790     2.6910 ha         1 0LQ       0.130750
     45 H8           0.7900    -2.2990     4.4090 ha         1 0LQ       0.130750
     46 H9           2.0750    -2.1880     6.5100 ha         1 0LQ       0.131000
     47 H10          1.7400    -0.2990     8.0610 ha         1 0LQ       0.130000
     48 H11          0.1230     1.4770     7.5100 ha         1 0LQ       0.131000
     49 H12         -1.1620     1.3660     5.4080 ha         1 0LQ       0.130750
     50 H13          0.0480    -1.9920     0.8960 h1         1 0LQ       0.069700
     51 H14         -2.3500    -2.0900     1.0930 h1         1 0LQ       0.063450
     52 H15         -2.4890    -0.3100     1.0940 h1         1 0LQ       0.063450
     53 H16         -2.7550    -0.6630    -1.1090 hn         1 0LQ       0.354800
     54 H18         -0.0910    -1.1810    -1.7960 h1         1 0LQ       0.063450
     55 H19         -0.9750     0.3620    -1.8830 h1         1 0LQ       0.063450
     56 H20          2.4640    -1.0200    -1.5190 h1         1 0LQ       0.062200
     57 H21          1.8670    -0.8690    -3.7670 ha         1 0LQ       0.130750
     58 H22          0.5780     0.2220    -5.5640 ha         1 0LQ       0.131000
     59 H23         -0.5570     2.3680    -5.1400 ha         1 0LQ       0.130000
     60 H24         -0.4110     3.4210    -2.9170 ha         1 0LQ       0.131000
     61 H25          0.8750     2.3310    -1.1170 ha         1 0LQ       0.130750
     62 H26          4.7350    -0.7260    -1.9720 ha         1 0LQ       0.130750
     63 H27          6.8390     0.5080    -1.6040 ha         1 0LQ       0.131000
     64 H28          6.8070     2.6770    -0.4330 ha         1 0LQ       0.130000
     65 H29          4.6700     3.6170     0.3640 ha         1 0LQ       0.131000
     66 H30          2.5680     2.3850    -0.0090 ha         1 0LQ       0.130750
@<TRIPOS>BOND
     1    35    34 ar  
     2    35    36 ar  
     3    34    33 ar  
     4    36    37 ar  
     5    17    18 ar  
     6    17    16 ar  
     7    33    32 ar  
     8    18    19 ar  
     9    37    32 ar  
    10    16    15 ar  
    11    32    25 1   
    12    23    24 1   
    13    23    22 1   
    14    24     1 1   
    15    19    20 ar  
    16    22    21 1   
    17     1     2 1   
    18     1    21 1   
    19    15    20 ar  
    20    15     8 1   
    21     2    25 1   
    22     2     3 1   
    23    25    26 1   
    24    21     7 1   
    25     7     5 1   
    26     7     8 1   
    27     5     3 1   
    28     5     6 2   
    29     8     9 1   
    30     3     4 2   
    31    26    27 ar  
    32    26    31 ar  
    33    27    28 ar  
    34    31    30 ar  
    35     9    10 ar  
    36     9    14 ar  
    37    28    29 ar  
    38    10    11 ar  
    39    14    13 ar  
    40    30    29 ar  
    41    11    12 ar  
    42    13    12 ar  
    43     1    38 1   
    44     8    39 1   
    45    10    40 1   
    46    11    41 1   
    47    12    42 1   
    48    13    43 1   
    49    14    44 1   
    50    16    45 1   
    51    17    46 1   
    52    18    47 1   
    53    19    48 1   
    54    20    49 1   
    55    21    50 1   
    56    22    51 1   
    57    22    52 1   
    58    23    53 1   
    59    24    54 1   
    60    24    55 1   
    61    25    56 1   
    62    27    57 1   
    63    28    58 1   
    64    29    59 1   
    65    30    60 1   
    66    31    61 1   
    67    33    62 1   
    68    34    63 1   
    69    35    64 1   
    70    36    65 1   
    71    37    66 1   
@<TRIPOS>SUBSTRUCTURE
     1 0LQ         1 TEMP              0 ****  ****    0 ROOT
