@<TRIPOS>MOLECULE
0LQ
   66    71     1     0     0
SMALL
bcc


@<TRIPOS>ATOM
      1 C1           0.0000     0.0000     0.0000 c3         1 0LQ      -0.010300
      2 N1           1.4500     0.0000     0.0000 n          1 0LQ      -0.165300
      3 C2           2.0260     0.0000     1.2410 c          1 0LQ       0.556500
      4 O1           3.2320    -0.0440     1.3660 o          1 0LQ      -0.596500
      5 C3           1.1290     0.0550     2.4460 c          1 0LQ       0.556500
      6 O2           1.5030     0.5790     3.4750 o          1 0LQ      -0.596500
      7 N2          -0.1190    -0.5000     2.3590 n          1 0LQ      -0.165300
      8 C4          -1.0450    -0.5380     3.4940 c3         1 0LQ       0.173300
      9 C5          -1.8380    -1.8180     3.4510 ca         1 0LQ      -0.098800
     10 C6          -3.1610    -1.8250     3.8520 ca         1 0LQ      -0.089000
     11 C7          -3.8890    -3.0000     3.8130 ca         1 0LQ      -0.094750
     12 C8          -3.2940    -4.1660     3.3730 ca         1 0LQ      -0.094750
     13 C9          -1.9720    -4.1600     2.9710 ca         1 0LQ      -0.094750
     14 C10         -1.2450    -2.9840     3.0060 ca         1 0LQ      -0.089000
     15 C11         -0.2630    -0.4730     4.7810 ca         1 0LQ      -0.098800
     16 C12          0.6440    -1.4690     5.0900 ca         1 0LQ      -0.089000
     17 C13          1.3640    -1.4070     6.2680 ca         1 0LQ      -0.094750
     18 C14          1.1760    -0.3480     7.1380 ca         1 0LQ      -0.094750
     19 C15          0.2690     0.6470     6.8290 ca         1 0LQ      -0.094750
     20 C16         -0.4510     0.5850     5.6500 ca         1 0LQ      -0.089000
     21 C17         -0.4560    -1.0470     1.0570 c3         1 0LQ      -0.010300
     22 C18         -1.9420    -1.1620     0.7110 c3         1 0LQ       0.125800
     23 N3          -1.9520    -1.1620    -0.7810 n7         1 0LQ      -0.580200
     24 C19         -0.7170    -0.4820    -1.2550 c3         1 0LQ       0.125800
     25 C20          2.2390     0.0000    -1.2350 c3         1 0LQ       0.173300
     26 C21          1.4510     0.6660    -2.3330 ca         1 0LQ      -0.098800
     27 C22          1.3670     0.0740    -3.5800 ca         1 0LQ      -0.089000
     28 C23          0.6450     0.6850    -4.5880 ca         1 0LQ      -0.094750
     29 C24          0.0070     1.8880    -4.3500 ca         1 0LQ      -0.094750
     30 C25          0.0910     2.4800    -3.1040 ca         1 0LQ      -0.094750
     31 C26          0.8090     1.8670    -2.0940 ca         1 0LQ      -0.089000
     32 C27          3.5240     0.7540    -1.0100 ca         1 0LQ      -0.098800
     33 C28          4.7210     0.2280    -1.4590 ca         1 0LQ      -0.089000
     34 C29          5.9010     0.9190    -1.2520 ca         1 0LQ      -0.094750
     35 C30          5.8820     2.1360    -0.5970 ca         1 0LQ      -0.094750
     36 C31          4.6850     2.6620    -0.1480 ca         1 0LQ      -0.094750
     37 C32          3.5060     1.9730    -0.3600 ca         1 0LQ      -0.089000
     38 H1          -0.3660     0.9810     0.2760 h1         1 0LQ       0.047700
     39 H2          -1.7200     0.3080     3.4380 h1         1 0LQ       0.032700
     40 H3          -3.6270    -0.9100     4.1970 ha         1 0LQ       0.107375
     41 H4          -4.9260    -3.0060     4.1280 ha         1 0LQ       0.103250
     42 H5          -3.8640    -5.0870     3.3440 ha         1 0LQ       0.102500
     43 H6          -1.5070    -5.0750     2.6240 ha         1 0LQ       0.103250
     44 H7          -0.2090    -2.9790     2.6910 ha         1 0LQ       0.107375
     45 H8           0.7900    -2.2990     4.4090 ha         1 0LQ       0.107375
     46 H9           2.0750    -2.1880     6.5100 ha         1 0LQ       0.103250
     47 H10          1.7400    -0.2990     8.0610 ha         1 0LQ       0.102500
     48 H11          0.1230     1.4770     7.5100 ha         1 0LQ       0.103250
     49 H12         -1.1620     1.3660     5.4080 ha         1 0LQ       0.107375
     50 H13          0.0480    -1.9920     0.8960 h1         1 0LQ       0.047700
     51 H14         -2.3500    -2.0900     1.0930 h1         1 0LQ       0.037200
     52 H15         -2.4890    -0.3100     1.0940 h1         1 0LQ       0.037200
     53 H16         -2.7550    -0.6630    -1.1090 hn         1 0LQ       0.256800
     54 H18         -0.0910    -1.1810    -1.7960 h1         1 0LQ       0.037200
     55 H19         -0.9750     0.3620    -1.8830 h1         1 0LQ       0.037200
     56 H20          2.4640    -1.0200    -1.5190 h1         1 0LQ       0.032700
     57 H21          1.8670    -0.8690    -3.7670 ha         1 0LQ       0.107375
     58 H22          0.5780     0.2220    -5.5640 ha         1 0LQ       0.103250
     59 H23         -0.5570     2.3680    -5.1400 ha         1 0LQ       0.102500
     60 H24         -0.4110     3.4210    -2.9170 ha         1 0LQ       0.103250
     61 H25          0.8750     2.3310    -1.1170 ha         1 0LQ       0.107375
     62 H26          4.7350    -0.7260    -1.9720 ha         1 0LQ       0.107375
     63 H27          6.8390     0.5080    -1.6040 ha         1 0LQ       0.103250
     64 H28          6.8070     2.6770    -0.4330 ha         1 0LQ       0.102500
     65 H29          4.6700     3.6170     0.3640 ha         1 0LQ       0.103250
     66 H30          2.5680     2.3850    -0.0090 ha         1 0LQ       0.107375
@<TRIPOS>BOND
     1     1     2 1   
     2     1    21 1   
     3     1    24 1   
     4     1    38 1   
     5     2     3 1   
     6     2    25 1   
     7     3     4 2   
     8     3     5 1   
     9     5     6 2   
    10     5     7 1   
    11     7     8 1   
    12     7    21 1   
    13     8     9 1   
    14     8    15 1   
    15     8    39 1   
    16     9    10 ar  
    17     9    14 ar  
    18    10    11 ar  
    19    10    40 1   
    20    11    12 ar  
    21    11    41 1   
    22    12    13 ar  
    23    12    42 1   
    24    13    14 ar  
    25    13    43 1   
    26    14    44 1   
    27    15    16 ar  
    28    15    20 ar  
    29    16    17 ar  
    30    16    45 1   
    31    17    18 ar  
    32    17    46 1   
    33    18    19 ar  
    34    18    47 1   
    35    19    20 ar  
    36    19    48 1   
    37    20    49 1   
    38    21    22 1   
    39    21    50 1   
    40    22    23 1   
    41    22    51 1   
    42    22    52 1   
    43    23    24 1   
    44    23    53 1   
    45    24    54 1   
    46    24    55 1   
    47    25    26 1   
    48    25    32 1   
    49    25    56 1   
    50    26    27 ar  
    51    26    31 ar  
    52    27    28 ar  
    53    27    57 1   
    54    28    29 ar  
    55    28    58 1   
    56    29    30 ar  
    57    29    59 1   
    58    30    31 ar  
    59    30    60 1   
    60    31    61 1   
    61    32    33 ar  
    62    32    37 ar  
    63    33    34 ar  
    64    33    62 1   
    65    34    35 ar  
    66    34    63 1   
    67    35    36 ar  
    68    35    64 1   
    69    36    37 ar  
    70    36    65 1   
    71    37    66 1   
@<TRIPOS>SUBSTRUCTURE
     1 0LQ         1 TEMP              0 ****  ****    0 ROOT
