@<TRIPOS>MOLECULE
0LR
   47    50     1     0     0
SMALL
bcc


@<TRIPOS>ATOM
      1 C1           0.0000     0.0000     0.0000 ca         1 0LR      -0.100000
      2 C2           1.3820     0.0000     0.0000 ca         1 0LR      -0.097000
      3 C3           2.0730     0.0000     1.1970 ca         1 0LR      -0.074300
      4 C4           1.3830    -0.0020     2.3940 ca         1 0LR      -0.097000
      5 C5          -0.0000    -0.0020     2.3940 ca         1 0LR      -0.100000
      6 C6          -0.6910     0.0050     1.1960 ca         1 0LR      -0.107000
      7 C7           3.5800    -0.0000     1.1970 c3         1 0LR       0.001600
      8 C8           4.0920    -1.2500     1.9180 c3         1 0LR       0.177100
      9 C9           5.6220     1.2090     1.9770 c3         1 0LR       0.143800
     10 C10          4.0920     1.2440     1.9260 c3         1 0LR      -0.021400
     11 N11          6.0610    -0.0050     2.6760 n7         1 0LR      -0.577200
     12 C12          5.6210    -1.2140     1.9690 c3         1 0LR       0.113800
     13 O13          3.6640    -2.4170     1.2120 os         1 0LR      -0.397600
     14 C14          3.4660    -3.5610     2.0450 c3         1 0LR       0.264700
     15 C15          3.0180    -4.7260     1.2000 ca         1 0LR      -0.105300
     16 C16          3.9710    -5.5800     0.6490 ca         1 0LR      -0.080000
     17 C17          3.6010    -6.6400    -0.1190 ca         1 0LR      -0.094000
     18 C18          1.6890    -4.9320     0.9920 ca         1 0LR      -0.060000
     19 C19          1.2680    -6.0170     0.2060 ca         1 0LR      -0.040000
     20 C20          2.2390    -6.8830    -0.3610 ca         1 0LR      -0.030000
     21 C21          1.8170    -7.9690    -1.1460 ca         1 0LR      -0.090000
     22 C22          0.4890    -8.1760    -1.3540 ca         1 0LR      -0.098000
     23 C23         -0.4650    -7.3250    -0.7970 ca         1 0LR      -0.103000
     24 C24         -0.0950    -6.2640    -0.0300 ca         1 0LR      -0.084000
     25 H1          -0.5410     0.0030    -0.9380 ha         1 0LR       0.101000
     26 H2           1.9240    -0.0010    -0.9380 ha         1 0LR       0.108000
     27 H3           1.9240    -0.0050     3.3320 ha         1 0LR       0.108000
     28 H4          -0.5420    -0.0010     3.3320 ha         1 0LR       0.101000
     29 H5          -1.7750     0.0050     1.1960 ha         1 0LR       0.101000
     30 H6           3.9470     0.0030     0.1780 hc         1 0LR       0.039700
     31 H7           3.6990    -1.2690     2.9270 h1         1 0LR       0.025700
     32 H8           6.0150     1.2050     0.9670 h1         1 0LR       0.007200
     33 H9           5.9850     2.0810     2.5070 h1         1 0LR       0.007200
     34 H10          3.7700     2.1310     1.3940 hc         1 0LR       0.026200
     35 H11          3.6990     1.2580     2.9350 hc         1 0LR       0.026200
     36 H12          7.0590    -0.0060     2.7490 hn         1 0LR       0.252800
     37 H14          5.9840    -2.0900     2.4940 h1         1 0LR       0.014200
     38 H15          6.0140    -1.2040     0.9590 h1         1 0LR       0.014200
     39 H16          2.7080    -3.3410     2.7870 h1         1 0LR      -0.005300
     40 H17          4.3950    -3.8120     2.5420 h1         1 0LR      -0.005300
     41 H18          5.0230    -5.3960     0.8340 ha         1 0LR       0.104000
     42 H19          4.3540    -7.2960    -0.5410 ha         1 0LR       0.106000
     43 H20          0.9590    -4.3300     1.5210 ha         1 0LR       0.111000
     44 H21          2.5470    -8.6380    -1.5850 ha         1 0LR       0.105000
     45 H22          0.1670    -9.0140    -1.9610 ha         1 0LR       0.100000
     46 H23         -1.5160    -7.5120    -0.9780 ha         1 0LR       0.100000
     47 H24         -0.8480    -5.6120     0.3960 ha         1 0LR       0.106000
@<TRIPOS>BOND
     1     1     2 ar  
     2     1     6 ar  
     3     1    25 1   
     4     2     3 ar  
     5     2    26 1   
     6     3     4 ar  
     7     3     7 1   
     8     4     5 ar  
     9     4    27 1   
    10     5     6 ar  
    11     5    28 1   
    12     6    29 1   
    13     7     8 1   
    14     7    10 1   
    15     7    30 1   
    16     8    12 1   
    17     8    13 1   
    18     8    31 1   
    19     9    10 1   
    20     9    11 1   
    21     9    32 1   
    22     9    33 1   
    23    10    34 1   
    24    10    35 1   
    25    11    12 1   
    26    11    36 1   
    27    12    37 1   
    28    12    38 1   
    29    13    14 1   
    30    14    15 1   
    31    14    39 1   
    32    14    40 1   
    33    15    16 ar  
    34    15    18 ar  
    35    16    17 ar  
    36    16    41 1   
    37    17    20 ar  
    38    17    42 1   
    39    18    19 ar  
    40    18    43 1   
    41    19    20 ar  
    42    19    24 ar  
    43    20    21 ar  
    44    21    22 ar  
    45    21    44 1   
    46    22    23 ar  
    47    22    45 1   
    48    23    24 ar  
    49    23    46 1   
    50    24    47 1   
@<TRIPOS>SUBSTRUCTURE
     1 0LR         1 TEMP              0 ****  ****    0 ROOT
