@<TRIPOS>MOLECULE
molecule
   47    50     1     0     0
SMALL
bcc


@<TRIPOS>ATOM
      1 C1           0.0000     0.0000     0.0000 ca         1 0LR      -0.127500
      2 C2           1.3820     0.0000     0.0000 ca         1 0LR      -0.121000
      3 C3           2.0730     0.0000     1.1970 ca         1 0LR      -0.068300
      4 C4           1.3830    -0.0020     2.3940 ca         1 0LR      -0.121000
      5 C5          -0.0000    -0.0020     2.3940 ca         1 0LR      -0.127500
      6 C6          -0.6910     0.0050     1.1960 ca         1 0LR      -0.133000
      7 C7           3.5800    -0.0000     1.1970 c3         1 0LR      -0.021400
      8 C8           4.0920    -1.2500     1.9180 c3         1 0LR       0.151100
      9 C9           5.6220     1.2090     1.9770 c3         1 0LR       0.154800
     10 C10          4.0920     1.2440     1.9260 c3         1 0LR      -0.071400
     11 N11          6.0610    -0.0050     2.6760 n7         1 0LR      -0.820200
     12 C12          5.6210    -1.2140     1.9690 c3         1 0LR       0.132800
     13 O13          3.6640    -2.4170     1.2120 os         1 0LR      -0.414600
     14 C14          3.4660    -3.5610     2.0450 c3         1 0LR       0.184700
     15 C15          3.0180    -4.7260     1.2000 ca         1 0LR      -0.086300
     16 C16          3.9710    -5.5800     0.6490 ca         1 0LR      -0.107000
     17 C17          3.6010    -6.6400    -0.1190 ca         1 0LR      -0.121000
     18 C18          1.6890    -4.9320     0.9920 ca         1 0LR      -0.087000
     19 C19          1.2680    -6.0170     0.2060 ca         1 0LR      -0.040000
     20 C20          2.2390    -6.8830    -0.3610 ca         1 0LR      -0.030000
     21 C21          1.8170    -7.9690    -1.1460 ca         1 0LR      -0.118000
     22 C22          0.4890    -8.1760    -1.3540 ca         1 0LR      -0.124000
     23 C23         -0.4650    -7.3250    -0.7970 ca         1 0LR      -0.129000
     24 C24         -0.0950    -6.2640    -0.0300 ca         1 0LR      -0.112000
     25 H1          -0.5410     0.0030    -0.9380 ha         1 0LR       0.128000
     26 H2           1.9240    -0.0010    -0.9380 ha         1 0LR       0.131000
     27 H3           1.9240    -0.0050     3.3320 ha         1 0LR       0.131000
     28 H4          -0.5420    -0.0010     3.3320 ha         1 0LR       0.128000
     29 H5          -1.7750     0.0050     1.1960 ha         1 0LR       0.127000
     30 H6           3.9470     0.0030     0.1780 hc         1 0LR       0.066700
     31 H7           3.6990    -1.2690     2.9270 h1         1 0LR       0.052700
     32 H8           6.0150     1.2050     0.9670 h1         1 0LR       0.033700
     33 H9           5.9850     2.0810     2.5070 h1         1 0LR       0.033700
     34 H10          3.7700     2.1310     1.3940 hc         1 0LR       0.055700
     35 H11          3.6990     1.2580     2.9350 hc         1 0LR       0.055700
     36 H12          7.0590    -0.0060     2.7490 hn         1 0LR       0.356800
     37 H14          5.9840    -2.0900     2.4940 h1         1 0LR       0.039700
     38 H15          6.0140    -1.2040     0.9590 h1         1 0LR       0.039700
     39 H16          2.7080    -3.3410     2.7870 h1         1 0LR       0.030200
     40 H17          4.3950    -3.8120     2.5420 h1         1 0LR       0.030200
     41 H18          5.0230    -5.3960     0.8340 ha         1 0LR       0.130000
     42 H19          4.3540    -7.2960    -0.5410 ha         1 0LR       0.132000
     43 H20          0.9590    -4.3300     1.5210 ha         1 0LR       0.138000
     44 H21          2.5470    -8.6380    -1.5850 ha         1 0LR       0.131000
     45 H22          0.1670    -9.0140    -1.9610 ha         1 0LR       0.128000
     46 H23         -1.5160    -7.5120    -0.9780 ha         1 0LR       0.128000
     47 H24         -0.8480    -5.6120     0.3960 ha         1 0LR       0.133000
@<TRIPOS>BOND
     1     9    11 1
     2     9    10 1
     3    12    11 1
     4    12     8 1
     5    23    24 ar
     6    23    22 ar
     7    24    19 ar
     8    22    21 ar
     9    19    18 ar
    10    19    20 ar
    11    10     7 1
    12    13     8 1
    13    13    14 1
    14     7     8 1
    15     7     3 1
    16    21    20 ar
    17    18    15 ar
    18    20    17 ar
    19     4     3 ar
    20     4     5 ar
    21    15    14 1
    22    15    16 ar
    23    17    16 ar
    24     3     2 ar
    25     5     6 ar
    26     2     1 ar
    27     6     1 ar
    28     1    25 1
    29     2    26 1
    30     4    27 1
    31     5    28 1
    32     6    29 1
    33     7    30 1
    34     8    31 1
    35     9    32 1
    36     9    33 1
    37    10    34 1
    38    10    35 1
    39    11    36 1
    40    12    37 1
    41    12    38 1
    42    14    39 1
    43    14    40 1
    44    16    41 1
    45    17    42 1
    46    18    43 1
    47    21    44 1
    48    22    45 1
    49    23    46 1
    50    24    47 1
@<TRIPOS>SUBSTRUCTURE
     1 0LR         1 TEMP              0 ****  ****    0 ROOT
