@<TRIPOS>MOLECULE
0LR
   47    50     1     0     0
SMALL
bcc


@<TRIPOS>ATOM
      1 C1           0.0800     0.1590    -0.4700 ca         1 0LR      -0.129500
      2 C2           1.4560     0.1380    -0.2520 ca         1 0LR      -0.125000
      3 C3           1.9710    -0.2480     0.9920 ca         1 0LR      -0.068300
      4 C4           1.0840    -0.6100     2.0130 ca         1 0LR      -0.125000
      5 C5          -0.2920    -0.5890     1.7930 ca         1 0LR      -0.129500
      6 C6          -0.7970    -0.2050     0.5510 ca         1 0LR      -0.131000
      7 C7           3.4460    -0.2870     1.2380 c3         1 0LR      -0.021400
      8 C8           4.0900     1.0990     1.0770 c3         1 0LR       0.149100
      9 C9           5.6310    -1.2890     0.4750 c3         1 0LR       0.158800
     10 C10          4.1160    -1.2760     0.2920 c3         1 0LR      -0.073400
     11 N11          6.2200     0.0290     0.3430 n7         1 0LR      -0.818200
     12 C12          5.6240     1.0160     1.2180 c3         1 0LR       0.133800
     13 O13          3.6010     1.9110     2.1490 os         1 0LR      -0.417600
     14 C14          3.5620     3.3000     1.8160 c3         1 0LR       0.175700
     15 C15          3.1210     4.0650     3.0210 ca         1 0LR      -0.080300
     16 C16          2.2160     3.4790     3.9450 ca         1 0LR      -0.100000
     17 C17          1.7780     4.1900     5.0340 ca         1 0LR      -0.124000
     18 C18          3.5690     5.3530     3.2180 ca         1 0LR      -0.117000
     19 C19          3.1250     6.1100     4.3340 ca         1 0LR      -0.037000
     20 C20          2.2190     5.5230     5.2540 ca         1 0LR      -0.034000
     21 C21          1.7770     6.2830     6.3720 ca         1 0LR      -0.118000
     22 C22          2.2210     7.5690     6.5600 ca         1 0LR      -0.128000
     23 C23          3.1260     8.1550     5.6420 ca         1 0LR      -0.129000
     24 C24          3.5680     7.4440     4.5540 ca         1 0LR      -0.117000
     25 H1          -0.3140     0.4630    -1.4510 ha         1 0LR       0.130000
     26 H2           2.1420     0.4260    -1.0640 ha         1 0LR       0.131500
     27 H3           1.4750    -0.9080     2.9980 ha         1 0LR       0.131500
     28 H4          -0.9800    -0.8750     2.6020 ha         1 0LR       0.130000
     29 H5          -1.8830    -0.1880     0.3780 ha         1 0LR       0.130000
     30 H6           3.6330    -0.6200     2.3000 hc         1 0LR       0.067700
     31 H7           3.8100     1.5390     0.0820 h1         1 0LR       0.055700
     32 H8           5.8620    -1.7590     1.4770 h1         1 0LR       0.030200
     33 H9           6.0890    -1.9420    -0.3210 h1         1 0LR       0.030200
     34 H10          3.8650    -1.0130    -0.7690 hc         1 0LR       0.053700
     35 H11          3.7220    -2.3060     0.4910 hc         1 0LR       0.053700
     36 H12          7.2080    -0.0190     0.5110 hn         1 0LR       0.364800
     37 H14          5.8530     0.8270     2.3090 h1         1 0LR       0.038700
     38 H15          6.0630     2.0170     0.9490 h1         1 0LR       0.038700
     39 H16          4.5810     3.6360     1.4800 h1         1 0LR       0.037700
     40 H17          2.8300     3.4580     0.9770 h1         1 0LR       0.037700
     41 H18          1.8850     2.4430     3.7680 ha         1 0LR       0.152000
     42 H19          1.0790     3.7400     5.7540 ha         1 0LR       0.133000
     43 H20          4.2770     5.8180     2.5140 ha         1 0LR       0.131000
     44 H21          1.0740     5.8190     7.0800 ha         1 0LR       0.132000
     45 H22          1.8810     8.1590     7.4240 ha         1 0LR       0.131000
     46 H23          3.4670     9.1860     5.8140 ha         1 0LR       0.131000
     47 H24          4.2710     7.8910     3.8350 ha         1 0LR       0.131000
@<TRIPOS>BOND
     1     1     2 ar  
     2     1     6 ar  
     3     1    25 1   
     4     2     3 ar  
     5     2    26 1   
     6     3     4 ar  
     7     3     7 1   
     8     4     5 ar  
     9     4    27 1   
    10     5     6 ar  
    11     5    28 1   
    12     6    29 1   
    13     7     8 1   
    14     7    10 1   
    15     7    30 1   
    16     8    12 1   
    17     8    13 1   
    18     8    31 1   
    19     9    10 1   
    20     9    11 1   
    21     9    32 1   
    22     9    33 1   
    23    10    34 1   
    24    10    35 1   
    25    11    12 1   
    26    11    36 1   
    27    12    37 1   
    28    12    38 1   
    29    13    14 1   
    30    14    15 1   
    31    14    39 1   
    32    14    40 1   
    33    15    16 ar  
    34    15    18 ar  
    35    16    17 ar  
    36    16    41 1   
    37    17    20 ar  
    38    17    42 1   
    39    18    19 ar  
    40    18    43 1   
    41    19    20 ar  
    42    19    24 ar  
    43    20    21 ar  
    44    21    22 ar  
    45    21    44 1   
    46    22    23 ar  
    47    22    45 1   
    48    23    24 ar  
    49    23    46 1   
    50    24    47 1   
@<TRIPOS>SUBSTRUCTURE
     1 0LR         1 TEMP              0 ****  ****    0 ROOT
