@<TRIPOS>MOLECULE
0LS
   52    55     1     0     0
SMALL
bcc


@<TRIPOS>ATOM
      1 N1          -0.1950     0.1240    -0.6240 n7         1 0LS      -0.794200
      2 C2           1.2580     0.0350    -0.5190 c3         1 0LS       0.149800
      3 C3           1.6710     0.0020     0.9700 c3         1 0LS      -0.103700
      4 C4           0.3520    -0.0170     1.7630 c3         1 0LS      -0.086700
      5 C5          -0.7550    -0.1570     0.6930 c3         1 0LS       0.146800
      6 C6           0.3290    -1.1470     2.7770 c3         1 0LS      -0.028100
      7 C7          -0.8590    -1.0840     3.6710 ca         1 0LS      -0.082300
      8 C8           2.5170     1.2110     1.3810 c3         1 0LS       0.218800
      9 N9           3.8550     1.2220     0.8220 nh         1 0LS      -0.556400
     10 C10          4.7870     0.2500     1.2430 ca         1 0LS       0.162600
     11 C11          4.3480     2.4840     0.3920 ca         1 0LS       0.139600
     12 C12          4.5420    -0.6120     2.3360 ca         1 0LS      -0.170000
     13 C13          5.4500    -1.6100     2.6740 ca         1 0LS      -0.096500
     14 C14          6.6260    -1.7680     1.9400 ca         1 0LS      -0.016600
     15 C15          6.8930    -0.9220     0.8580 ca         1 0LS      -0.096500
     16 C16          5.9900     0.0720     0.5130 ca         1 0LS      -0.170000
     17 C17          5.5410     3.0330     0.9120 ca         1 0LS      -0.157500
     18 C18          6.0080     4.2610     0.4540 ca         1 0LS      -0.112000
     19 C19          5.3030     4.9720    -0.5160 ca         1 0LS      -0.146000
     20 C20          4.1230     4.4410    -1.0330 ca         1 0LS      -0.112000
     21 C21          3.6440     3.2110    -0.5930 ca         1 0LS      -0.157500
     22 C22         -1.9190    -1.9840     3.5100 ca         1 0LS      -0.127500
     23 C23         -3.0220    -1.9320     4.3600 ca         1 0LS      -0.127500
     24 C24         -3.0770    -0.9810     5.3790 ca         1 0LS      -0.131000
     25 C25         -2.0240    -0.0810     5.5450 ca         1 0LS      -0.127500
     26 C26         -0.9200    -0.1320     4.6960 ca         1 0LS      -0.127500
     27 Cl2          7.7350    -2.9870     2.3590 cl         1 0LS      -0.097400
     28 H1          -0.4640     1.0440    -0.9240 hn         1 0LS       0.344800
     29 H3           1.7630     0.8770    -1.0630 h1         1 0LS       0.054200
     30 H4           1.5710    -0.9260    -1.0130 h1         1 0LS       0.054200
     31 H5           2.2490    -0.9420     1.1610 hc         1 0LS       0.073700
     32 H6           0.2120     0.9560     2.3080 hc         1 0LS       0.053700
     33 H7          -1.1420    -1.2140     0.6790 h1         1 0LS       0.053200
     34 H8          -1.6180     0.5210     0.9270 h1         1 0LS       0.053200
     35 H9           0.3550    -2.1320     2.2390 hc         1 0LS       0.051700
     36 H10          1.2620    -1.0840     3.4020 hc         1 0LS       0.051700
     37 H11          2.5660     1.2400     2.5100 h1         1 0LS       0.046200
     38 H12          1.9860     2.1480     1.0470 h1         1 0LS       0.046200
     39 H13          3.6260    -0.5150     2.9390 ha         1 0LS       0.144500
     40 H14          5.2360    -2.2710     3.5280 ha         1 0LS       0.146500
     41 H15          7.8190    -1.0450     0.2750 ha         1 0LS       0.146500
     42 H16          6.2140     0.7290    -0.3430 ha         1 0LS       0.144500
     43 H17          6.1130     2.4860     1.6780 ha         1 0LS       0.140500
     44 H18          6.9410     4.6730     0.8690 ha         1 0LS       0.134500
     45 H19          5.6760     5.9440    -0.8700 ha         1 0LS       0.135000
     46 H20          3.5630     4.9950    -1.8020 ha         1 0LS       0.134500
     47 H21          2.7160     2.8080    -1.0270 ha         1 0LS       0.140500
     48 H22         -1.8800    -2.7350     2.7060 ha         1 0LS       0.131000
     49 H23         -3.8500    -2.6440     4.2270 ha         1 0LS       0.131500
     50 H24         -3.9470    -0.9410     6.0500 ha         1 0LS       0.132000
     51 H25         -2.0640     0.6690     6.3480 ha         1 0LS       0.131500
     52 H26         -0.0900     0.5770     4.8310 ha         1 0LS       0.131000
@<TRIPOS>BOND
     1     1     2 1   
     2     1     5 1   
     3     1    28 1   
     4     2     3 1   
     5     2    29 1   
     6     2    30 1   
     7     3     4 1   
     8     3     8 1   
     9     3    31 1   
    10     4     5 1   
    11     4     6 1   
    12     4    32 1   
    13     5    33 1   
    14     5    34 1   
    15     6     7 1   
    16     6    35 1   
    17     6    36 1   
    18     7    22 ar  
    19     7    26 ar  
    20     8     9 1   
    21     8    37 1   
    22     8    38 1   
    23     9    10 1   
    24     9    11 1   
    25    10    12 ar  
    26    10    16 ar  
    27    11    17 ar  
    28    11    21 ar  
    29    12    13 ar  
    30    12    39 1   
    31    13    14 ar  
    32    13    40 1   
    33    14    15 ar  
    34    14    27 1   
    35    15    16 ar  
    36    15    41 1   
    37    16    42 1   
    38    17    18 ar  
    39    17    43 1   
    40    18    19 ar  
    41    18    44 1   
    42    19    20 ar  
    43    19    45 1   
    44    20    21 ar  
    45    20    46 1   
    46    21    47 1   
    47    22    23 ar  
    48    22    48 1   
    49    23    24 ar  
    50    23    49 1   
    51    24    25 ar  
    52    24    50 1   
    53    25    26 ar  
    54    25    51 1   
    55    26    52 1   
@<TRIPOS>SUBSTRUCTURE
     1 0LS         1 TEMP              0 ****  ****    0 ROOT
