@<TRIPOS>MOLECULE
0LS
   52    55     1     0     0
SMALL
bcc


@<TRIPOS>ATOM
      1 N1           0.0000     0.0000     0.0000 n7         1 0LS      -0.582200
      2 C2           1.4790     0.0000     0.0000 c3         1 0LS       0.130800
      3 C3           1.9300     0.0000     1.4730 c3         1 0LS      -0.086700
      4 C4           0.6220    -0.0320     2.2960 c3         1 0LS      -0.044700
      5 C5          -0.4060    -0.6110     1.2910 c3         1 0LS       0.139800
      6 C6           0.7690    -0.9500     3.5110 c3         1 0LS       0.034900
      7 C7          -0.4740    -0.8650     4.3580 ca         1 0LS      -0.090300
      8 C8           2.7230     1.2700     1.7840 c3         1 0LS       0.165800
      9 N9           3.9760     1.2630     1.0250 nh         1 0LS      -0.218400
     10 C10          5.0900     0.5780     1.5180 ca         1 0LS       0.068600
     11 C11          4.0570     1.9410    -0.1950 ca         1 0LS       0.015600
     12 C12          5.0330    -0.0360     2.7640 ca         1 0LS      -0.184000
     13 C13          6.1330    -0.7160     3.2470 ca         1 0LS      -0.049500
     14 C14          7.2910    -0.7880     2.4930 ca         1 0LS      -0.087600
     15 C15          7.3500    -0.1780     1.2520 ca         1 0LS      -0.049500
     16 C16          6.2530     0.5040     0.7630 ca         1 0LS      -0.184000
     17 C17          4.2230     1.2300    -1.3770 ca         1 0LS      -0.111000
     18 C18          4.3020     1.9030    -2.5800 ca         1 0LS      -0.089500
     19 C19          4.2180     3.2830    -2.6080 ca         1 0LS      -0.100000
     20 C20          4.0550     3.9940    -1.4340 ca         1 0LS      -0.089500
     21 C21          3.9670     3.3270    -0.2270 ca         1 0LS      -0.111000
     22 C22         -1.5300    -1.7270     4.1240 ca         1 0LS      -0.099500
     23 C23         -2.6710    -1.6490     4.9010 ca         1 0LS      -0.097000
     24 C24         -2.7560    -0.7080     5.9110 ca         1 0LS      -0.103000
     25 C25         -1.7010     0.1520     6.1440 ca         1 0LS      -0.097000
     26 C26         -0.5580     0.0710     5.3720 ca         1 0LS      -0.099500
     27 Cl2          8.6720    -1.6440     3.1030 cl         1 0LS      -0.039400
     28 H1          -0.3340    -0.5650    -0.7560 hn         1 0LS       0.251800
     29 H3           1.8470    -0.8890    -0.4980 h1         1 0LS       0.019700
     30 H4           1.8470     0.8890    -0.4980 h1         1 0LS       0.019700
     31 H5           2.5240    -0.8810     1.6820 hc         1 0LS       0.044700
     32 H6           0.3370     0.9690     2.5960 hc         1 0LS       0.047700
     33 H7          -1.4110    -0.3080     1.5570 h1         1 0LS       0.016200
     34 H8          -0.3240    -1.6910     1.2440 h1         1 0LS       0.016200
     35 H9           0.9100    -1.9710     3.1780 hc         1 0LS       0.021200
     36 H10          1.6260    -0.6390     4.0970 hc         1 0LS       0.021200
     37 H11          2.9440     1.3080     2.8440 h1         1 0LS       0.034700
     38 H12          2.1380     2.1380     1.5060 h1         1 0LS       0.034700
     39 H13          4.1270     0.0200     3.3550 ha         1 0LS       0.124500
     40 H14          6.0890    -1.1950     4.2180 ha         1 0LS       0.110000
     41 H15          8.2570    -0.2350     0.6630 ha         1 0LS       0.110000
     42 H16          6.3000     0.9810    -0.2080 ha         1 0LS       0.124500
     43 H17          4.2880     0.1490    -1.3550 ha         1 0LS       0.114500
     44 H18          4.4300     1.3500    -3.5020 ha         1 0LS       0.105000
     45 H19          4.2840     3.8090    -3.5530 ha         1 0LS       0.104000
     46 H20          3.9870     5.0750    -1.4600 ha         1 0LS       0.105000
     47 H21          3.8390     3.8840     0.6930 ha         1 0LS       0.114500
     48 H22         -1.4630    -2.4640     3.3330 ha         1 0LS       0.105000
     49 H23         -3.4980    -2.3240     4.7180 ha         1 0LS       0.102000
     50 H24         -3.6510    -0.6450     6.5190 ha         1 0LS       0.102000
     51 H25         -1.7670     0.8880     6.9370 ha         1 0LS       0.102000
     52 H26          0.2700     0.7460     5.5550 ha         1 0LS       0.105000
@<TRIPOS>BOND
     1     1     2 1   
     2     1     5 1   
     3     1    28 1   
     4     2     3 1   
     5     2    29 1   
     6     2    30 1   
     7     3     4 1   
     8     3     8 1   
     9     3    31 1   
    10     4     5 1   
    11     4     6 1   
    12     4    32 1   
    13     5    33 1   
    14     5    34 1   
    15     6     7 1   
    16     6    35 1   
    17     6    36 1   
    18     7    22 ar  
    19     7    26 ar  
    20     8     9 1   
    21     8    37 1   
    22     8    38 1   
    23     9    10 1   
    24     9    11 1   
    25    10    12 ar  
    26    10    16 ar  
    27    11    17 ar  
    28    11    21 ar  
    29    12    13 ar  
    30    12    39 1   
    31    13    14 ar  
    32    13    40 1   
    33    14    15 ar  
    34    14    27 1   
    35    15    16 ar  
    36    15    41 1   
    37    16    42 1   
    38    17    18 ar  
    39    17    43 1   
    40    18    19 ar  
    41    18    44 1   
    42    19    20 ar  
    43    19    45 1   
    44    20    21 ar  
    45    20    46 1   
    46    21    47 1   
    47    22    23 ar  
    48    22    48 1   
    49    23    24 ar  
    50    23    49 1   
    51    24    25 ar  
    52    24    50 1   
    53    25    26 ar  
    54    25    51 1   
    55    26    52 1   
@<TRIPOS>SUBSTRUCTURE
     1 0LS         1 TEMP              0 ****  ****    0 ROOT
