@<TRIPOS>MOLECULE
0LT
   71    73     1     0     0
SMALL
bcc


@<TRIPOS>ATOM
      1 C1           0.0000     0.0000     0.0000 c          1 0LT       0.616700
      2 N2           1.3480     0.0000     0.0000 n          1 0LT      -0.135800
      3 C3           2.0790     0.0000     1.2690 c3         1 0LT       0.051000
      4 C4          -0.7370    -0.0710    -1.2770 ca         1 0LT      -0.148600
      5 C5           2.3350    -1.4430     1.7100 c3         1 0LT      -0.090700
      6 C6          -1.8030    -0.9640    -1.4220 ca         1 0LT      -0.124000
      7 C7          -2.4890    -1.0260    -2.6190 ca         1 0LT       0.114100
      8 N8           1.3470    -2.9920     3.2500 n7         1 0LT      -0.586200
      9 C9           3.1830    -1.4670     2.9990 c3         1 0LT      -0.039700
     10 O10         -0.6080     0.0530     1.0510 o          1 0LT      -0.652100
     11 C11         -2.1190    -0.1990    -3.6790 ca         1 0LT       0.137100
     12 C12         -0.3760     0.7590    -2.3410 ca         1 0LT      -0.096000
     13 C13          4.4710    -2.2630     2.7730 c3         1 0LT       0.034900
     14 C14          2.0800     0.0010    -1.2680 c3         1 0LT      -0.021300
     15 C15         -1.0620     0.6880    -3.5340 ca         1 0LT      -0.187000
     16 C16          1.0060    -2.1310     2.0880 c3         1 0LT       0.118800
     17 C17          2.2940    -2.1670     4.0490 c3         1 0LT       0.125800
     18 O18         -3.5260    -1.8950    -2.7630 os         1 0LT      -0.289900
     19 C19          5.3390    -2.1710     4.0020 ca         1 0LT      -0.088300
     20 O20         -2.7960    -0.2610    -4.8540 os         1 0LT      -0.288900
     21 C21         -5.0330    -3.6180    -1.9870 c3         1 0LT      -0.041400
     22 O22         -6.4850    -5.3380    -1.1060 os         1 0LT      -0.416600
     23 C23         -3.8500    -2.7120    -1.6370 c3         1 0LT       0.202400
     24 C24         -5.3790    -4.4920    -0.7800 c3         1 0LT       0.216400
     25 C25          2.8290     1.3270    -1.4240 c3         1 0LT      -0.020100
     26 C26          3.0830    -1.1550    -1.2790 c3         1 0LT      -0.020100
     27 C27          6.2600    -1.1470     4.1230 ca         1 0LT      -0.102500
     28 C28          5.2100    -3.1090     5.0100 ca         1 0LT      -0.102500
     29 C29         -2.3650     0.6140    -5.8980 c3         1 0LT       0.241700
     30 C30         -6.8900    -6.2010    -0.0420 c3         1 0LT       0.256700
     31 C31          7.0570    -1.0640     5.2490 ca         1 0LT      -0.098000
     32 C32          6.0060    -3.0240     6.1370 ca         1 0LT      -0.098000
     33 C33          6.9320    -2.0050     6.2540 ca         1 0LT      -0.106000
     34 H1           1.4930     0.5100     2.0240 h1         1 0LT       0.036700
     35 H2           3.0260     0.5120     1.1410 h1         1 0LT       0.036700
     36 H3           2.8340    -1.9990     0.9250 hc         1 0LT       0.052700
     37 H4          -2.0890    -1.6060    -0.5980 ha         1 0LT       0.135000
     38 H5           0.5220    -3.1680     3.7890 hn         1 0LT       0.252800
     39 H7           3.4090    -0.4560     3.3160 hc         1 0LT       0.033700
     40 H8           0.4490     1.4520    -2.2310 ha         1 0LT       0.121000
     41 H9           4.2250    -3.3000     2.5800 hc         1 0LT       0.024700
     42 H10          5.0030    -1.8530     1.9230 hc         1 0LT       0.024700
     43 H11          1.3830    -0.1190    -2.0880 h1         1 0LT       0.074700
     44 H12         -0.7790     1.3310    -4.3590 ha         1 0LT       0.125000
     45 H13          0.6490    -2.7370     1.2630 h1         1 0LT       0.032200
     46 H14          0.2670    -1.3920     2.3710 h1         1 0LT       0.032200
     47 H15          2.8970    -2.8000     4.6890 h1         1 0LT       0.020200
     48 H16          1.7530    -1.4330     4.6340 h1         1 0LT       0.020200
     49 H17         -5.8890    -3.0080    -2.2490 hc         1 0LT       0.033200
     50 H18         -4.7690    -4.2490    -2.8260 hc         1 0LT       0.033200
     51 H19         -4.1140    -2.0810    -0.7970 h1         1 0LT       0.002700
     52 H20         -2.9940    -3.3220    -1.3750 h1         1 0LT       0.002700
     53 H21         -4.5230    -5.1020    -0.5180 h1         1 0LT      -0.009800
     54 H22         -5.6430    -3.8610     0.0600 h1         1 0LT      -0.009800
     55 H23          3.8450     1.2130    -1.0660 hc         1 0LT       0.014033
     56 H24          2.3270     2.0950    -0.8480 hc         1 0LT       0.014033
     57 H25          2.8450     1.6120    -2.4690 hc         1 0LT       0.014033
     58 H26          3.5170    -1.2470    -2.2670 hc         1 0LT       0.014033
     59 H27          2.5750    -2.0760    -1.0210 hc         1 0LT       0.014033
     60 H28          3.8670    -0.9610    -0.5570 hc         1 0LT       0.014033
     61 H29          6.3570    -0.4110     3.3350 ha         1 0LT       0.109000
     62 H30          4.4840    -3.9080     4.9170 ha         1 0LT       0.109000
     63 H31         -2.9770     0.4560    -6.7770 h1         1 0LT      -0.002300
     64 H32         -1.3290     0.4080    -6.1370 h1         1 0LT      -0.002300
     65 H33         -2.4630     1.6420    -5.5700 h1         1 0LT      -0.002300
     66 H34         -6.0680    -6.8520     0.2280 h1         1 0LT      -0.013300
     67 H35         -7.1760    -5.6050     0.8160 h1         1 0LT      -0.013300
     68 H36         -7.7340    -6.7990    -0.3640 h1         1 0LT      -0.013300
     69 H37          7.7800    -0.2640     5.3420 ha         1 0LT       0.101500
     70 H38          5.9080    -3.7600     6.9270 ha         1 0LT       0.101500
     71 H39          7.5560    -1.9390     7.1370 ha         1 0LT       0.102000
@<TRIPOS>BOND
     1     1     2 1   
     2     1     4 1   
     3     1    10 2   
     4     2     3 1   
     5     2    14 1   
     6     3     5 1   
     7     3    34 1   
     8     3    35 1   
     9     4     6 ar  
    10     4    12 ar  
    11     5     9 1   
    12     5    16 1   
    13     5    36 1   
    14     6     7 ar  
    15     6    37 1   
    16     7    11 ar  
    17     7    18 1   
    18     8    16 1   
    19     8    17 1   
    20     8    38 1   
    21     9    13 1   
    22     9    17 1   
    23     9    39 1   
    24    11    15 ar  
    25    11    20 1   
    26    12    15 ar  
    27    12    40 1   
    28    13    19 1   
    29    13    41 1   
    30    13    42 1   
    31    14    25 1   
    32    14    26 1   
    33    14    43 1   
    34    15    44 1   
    35    16    45 1   
    36    16    46 1   
    37    17    47 1   
    38    17    48 1   
    39    18    23 1   
    40    19    27 ar  
    41    19    28 ar  
    42    20    29 1   
    43    21    23 1   
    44    21    24 1   
    45    21    49 1   
    46    21    50 1   
    47    22    24 1   
    48    22    30 1   
    49    23    51 1   
    50    23    52 1   
    51    24    53 1   
    52    24    54 1   
    53    25    55 1   
    54    25    56 1   
    55    25    57 1   
    56    26    58 1   
    57    26    59 1   
    58    26    60 1   
    59    27    31 ar  
    60    27    61 1   
    61    28    32 ar  
    62    28    62 1   
    63    29    63 1   
    64    29    64 1   
    65    29    65 1   
    66    30    66 1   
    67    30    67 1   
    68    30    68 1   
    69    31    33 ar  
    70    31    69 1   
    71    32    33 ar  
    72    32    70 1   
    73    33    71 1   
@<TRIPOS>SUBSTRUCTURE
     1 0LT         1 TEMP              0 ****  ****    0 ROOT
