@<TRIPOS>MOLECULE
0LT
   72    74     1     0     0
SMALL
bcc


@<TRIPOS>ATOM
      1 C1           0.4280    -1.0120    -0.4120 c          1 0LT       0.579700
      2 N2           1.7620    -0.3110    -0.6500 nx         1 0LT      -0.599200
      3 C3           2.4330     0.0410     0.6390 c3         1 0LT       0.112800
      4 C4          -0.7110    -0.5150    -1.1790 ca         1 0LT      -0.221600
      5 C5           1.7660     1.1980     1.3770 c3         1 0LT      -0.119700
      6 C6          -0.8810     0.8530    -1.4830 ca         1 0LT      -0.175000
      7 C7          -1.9980     1.2690    -2.1920 ca         1 0LT       0.122100
      8 N8           2.5650     3.5190     1.4230 n7         1 0LT      -0.792200
      9 C9           2.4950     1.4320     2.7160 c3         1 0LT      -0.076700
     10 O10          0.4460    -1.9560     0.3700 o          1 0LT      -0.444100
     11 C11         -2.9690     0.3020    -2.6230 ca         1 0LT       0.189100
     12 C12         -1.6750    -1.4500    -1.5710 ca         1 0LT      -0.024000
     13 C13          1.5330     1.3240     3.8890 c3         1 0LT      -0.030100
     14 C14          2.6370    -1.1740    -1.5430 c3         1 0LT       0.143500
     15 C15         -2.7930    -1.0440    -2.3000 ca         1 0LT      -0.208000
     16 C16          1.8740     2.5350     0.6060 c3         1 0LT       0.144800
     17 C17          3.1140     2.8430     2.5930 c3         1 0LT       0.143800
     18 O18         -2.3040     2.5630    -2.5280 os         1 0LT      -0.286900
     19 C19          2.2380     1.4050     5.1970 ca         1 0LT      -0.101300
     20 O20         -4.0160     0.8140    -3.3300 os         1 0LT      -0.276900
     21 C21         -0.2050     3.7090    -3.0040 c3         1 0LT      -0.115400
     22 O22          0.0430     5.9500    -2.2720 os         1 0LT      -0.425600
     23 C23         -1.4150     3.5980    -2.0970 c3         1 0LT       0.123400
     24 C24          0.7730     4.7470    -2.4810 c3         1 0LT       0.128400
     25 C25          3.6740    -0.3340    -2.2800 c3         1 0LT      -0.129100
     26 C26          3.3170    -2.3110    -0.7950 c3         1 0LT      -0.129100
     27 C27          2.1640     2.5670     5.9730 ca         1 0LT      -0.126500
     28 C28          2.9660     0.3070     5.6720 ca         1 0LT      -0.126500
     29 C29         -5.0300    -0.1080    -3.7410 c3         1 0LT       0.100700
     30 C30          0.8830     7.0710    -2.0410 c3         1 0LT       0.112700
     31 C31          2.8130     2.6310     7.2050 ca         1 0LT      -0.120500
     32 C32          3.6140     0.3730     6.9040 ca         1 0LT      -0.120500
     33 C33          3.5400     1.5360     7.6720 ca         1 0LT      -0.116000
     34 H1           2.4220    -0.8820     1.2910 hx         1 0LT       0.109700
     35 H2           3.5040     0.3090     0.4070 hx         1 0LT       0.109700
     36 H3           0.6860     0.9530     1.5620 hc         1 0LT       0.076700
     37 H4          -0.1640     1.6060    -1.1230 ha         1 0LT       0.137000
     38 H5           1.9420     4.2570     1.6950 hn         1 0LT       0.369800
     39 H7           3.3170     0.6820     2.8620 hc         1 0LT       0.069700
     40 H8          -1.5550    -2.5130    -1.3030 ha         1 0LT       0.164000
     41 H9           0.9900     0.3410     3.8270 hc         1 0LT       0.053200
     42 H10          0.7610     2.1360     3.8160 hc         1 0LT       0.053200
     43 H11          1.9260    -1.6170    -2.3080 hx         1 0LT       0.097700
     44 H12         -3.5370    -1.7960    -2.6080 ha         1 0LT       0.170000
     45 H13          0.8520     2.8930     0.3020 h1         1 0LT       0.038700
     46 H14          2.4830     2.4060    -0.3330 h1         1 0LT       0.038700
     47 H15          4.2250     2.7550     2.4390 h1         1 0LT       0.071700
     48 H16          2.9420     3.4330     3.5350 h1         1 0LT       0.071700
     49 H17          0.3200     2.7220    -3.0820 hc         1 0LT       0.058200
     50 H18         -0.5470     3.9960    -4.0330 hc         1 0LT       0.058200
     51 H19         -1.1240     3.4580    -1.0240 h1         1 0LT       0.077200
     52 H20         -2.0570     4.5220    -2.1890 h1         1 0LT       0.077200
     53 H21          1.2240     4.4170    -1.5040 h1         1 0LT       0.028700
     54 H22          1.5970     4.9120    -3.2250 h1         1 0LT       0.028700
     55 H23          3.1960     0.4800    -2.8780 hc         1 0LT       0.075700
     56 H24          4.2250    -1.0060    -2.9850 hc         1 0LT       0.075700
     57 H25          4.4160     0.1160    -1.5780 hc         1 0LT       0.075700
     58 H26          4.1240    -1.9320    -0.1230 hc         1 0LT       0.075700
     59 H27          3.7810    -2.9940    -1.5500 hc         1 0LT       0.075700
     60 H28          2.5840    -2.9010    -0.1890 hc         1 0LT       0.075700
     61 H29          1.5860     3.4320     5.6150 ha         1 0LT       0.127000
     62 H30          3.0190    -0.6140     5.0740 ha         1 0LT       0.127000
     63 H31         -5.7610     0.5520    -4.2760 h1         1 0LT       0.064033
     64 H32         -5.5030    -0.5900    -2.8530 h1         1 0LT       0.064033
     65 H33         -4.6030    -0.8730    -4.4340 h1         1 0LT       0.064033
     66 H34          1.5370     7.2630    -2.9270 h1         1 0LT       0.043033
     67 H35          0.1710     7.9200    -1.8860 h1         1 0LT       0.043033
     68 H36          1.5100     6.9110    -1.1290 h1         1 0LT       0.043033
     69 H37          2.7480     3.5470     7.8110 ha         1 0LT       0.141000
     70 H38          4.1820    -0.4940     7.2730 ha         1 0LT       0.141000
     71 H39          4.0500     1.5870     8.6460 ha         1 0LT       0.144000
     72 H211         1.5800     0.5610    -1.1630 hn         1 0LT       0.448800
@<TRIPOS>BOND
     1     1     2 1   
     2     1     4 1   
     3     1    10 2   
     4     2     3 1   
     5     2    14 1   
     6     2    72 1   
     7     3     5 1   
     8     3    34 1   
     9     3    35 1   
    10     4     6 ar  
    11     4    12 ar  
    12     5     9 1   
    13     5    16 1   
    14     5    36 1   
    15     6     7 ar  
    16     6    37 1   
    17     7    11 ar  
    18     7    18 1   
    19     8    16 1   
    20     8    17 1   
    21     8    38 1   
    22     9    13 1   
    23     9    17 1   
    24     9    39 1   
    25    11    15 ar  
    26    11    20 1   
    27    12    15 ar  
    28    12    40 1   
    29    13    19 1   
    30    13    41 1   
    31    13    42 1   
    32    14    25 1   
    33    14    26 1   
    34    14    43 1   
    35    15    44 1   
    36    16    45 1   
    37    16    46 1   
    38    17    47 1   
    39    17    48 1   
    40    18    23 1   
    41    19    27 ar  
    42    19    28 ar  
    43    20    29 1   
    44    21    23 1   
    45    21    24 1   
    46    21    49 1   
    47    21    50 1   
    48    22    24 1   
    49    22    30 1   
    50    23    51 1   
    51    23    52 1   
    52    24    53 1   
    53    24    54 1   
    54    25    55 1   
    55    25    56 1   
    56    25    57 1   
    57    26    58 1   
    58    26    59 1   
    59    26    60 1   
    60    27    31 ar  
    61    27    61 1   
    62    28    32 ar  
    63    28    62 1   
    64    29    63 1   
    65    29    64 1   
    66    29    65 1   
    67    30    66 1   
    68    30    67 1   
    69    30    68 1   
    70    31    33 ar  
    71    31    69 1   
    72    32    33 ar  
    73    32    70 1   
    74    33    71 1   
@<TRIPOS>SUBSTRUCTURE
     1 0LT         1 TEMP              0 ****  ****    0 ROOT
