@<TRIPOS>MOLECULE
molecule
   46    49     1     0     0
SMALL
bcc


@<TRIPOS>ATOM
      1 C1           0.0000     0.0000     0.0000 ca         1 0LU      -0.071800
      2 C2           1.4940     0.0000     0.0000 c3         1 0LU       0.028900
      3 C3          -0.7590    -0.6130     0.9790 ca         1 0LU       0.025400
      4 C4          -0.6460     0.6330    -1.0560 ca         1 0LU      -0.088000
      5 C5           2.1350     0.0000     1.3490 ca         1 0LU      -0.071800
      6 C6           1.9750    -1.2370    -0.7600 c3         1 0LU      -0.106400
      7 S7          -0.0020    -1.3860     2.3670 ss         1 0LU      -0.184800
      8 C8          -2.1500    -0.6130     0.8890 ca         1 0LU      -0.111000
      9 C9          -2.0230     0.6400    -1.1390 ca         1 0LU      -0.129500
     10 C10          1.5720    -0.6040     2.4580 ca         1 0LU       0.025400
     11 C11          3.3630     0.6400     1.4820 ca         1 0LU      -0.088000
     12 C12          1.4320    -1.1990    -2.1900 c3         1 0LU       0.142100
     13 C13         -2.7800     0.0110    -0.1670 ca         1 0LU      -0.120500
     14 C14          2.2420    -0.5860     3.6810 ca         1 0LU      -0.111000
     15 C15          4.0200     0.6640     2.6940 ca         1 0LU      -0.129500
     16 C16          2.0120    -2.3700    -2.9870 c3         1 0LU       0.122800
     17 O17          0.0080    -1.3020    -2.1620 oh         1 0LU      -0.596800
     18 C18          3.4610     0.0460     3.7980 ca         1 0LU      -0.120500
     19 N19          1.5870    -2.2660    -4.3900 n3         1 0LU      -0.713600
     20 C20          2.3140    -3.2320    -5.2350 c3         1 0LU       0.153300
     21 C21          0.1380    -2.5200    -4.5240 c3         1 0LU       0.153300
     22 C22          1.2560    -4.1060    -5.9410 c3         1 0LU      -0.099400
     23 C23         -0.0160    -3.2190    -5.8970 c3         1 0LU      -0.099400
     24 H1           1.8300     0.8820    -0.5310 hc         1 0LU       0.065700
     25 H2          -0.0620     1.1280    -1.8220 ha         1 0LU       0.131000
     26 H3           1.6170    -2.1300    -0.2620 hc         1 0LU       0.056200
     27 H4           3.0580    -1.2470    -0.7850 hc         1 0LU       0.056200
     28 H5          -2.7400    -1.1070     1.6520 ha         1 0LU       0.138000
     29 H6          -2.5120     1.1320    -1.9710 ha         1 0LU       0.130500
     30 H7           3.8090     1.1270     0.6220 ha         1 0LU       0.131000
     31 H8           1.7170    -0.2660    -2.6600 h1         1 0LU       0.087700
     32 H9          -3.8610     0.0160    -0.2310 ha         1 0LU       0.132000
     33 H10          1.8010    -1.0710     4.5440 ha         1 0LU       0.138000
     34 H11          4.9770     1.1630     2.7810 ha         1 0LU       0.130500
     35 H12          3.0940    -2.3420    -2.9340 h1         1 0LU       0.038700
     36 H13          1.6550    -3.3030    -2.5700 h1         1 0LU       0.038700
     37 H14         -0.2390    -2.1860    -1.9430 ho         1 0LU       0.400000
     38 H15          3.9750     0.0650     4.7510 ha         1 0LU       0.132000
     39 H17          2.9060    -2.7040    -5.9720 h1         1 0LU       0.046200
     40 H18          2.9510    -3.8540    -4.6180 h1         1 0LU       0.046200
     41 H19         -0.4100    -1.5850    -4.5150 h1         1 0LU       0.046200
     42 H20         -0.2040    -3.1730    -3.7300 h1         1 0LU       0.046200
     43 H21          1.5470    -4.3050    -6.9650 hc         1 0LU       0.050200
     44 H22          1.0970    -5.0280    -5.3950 hc         1 0LU       0.050200
     45 H23         -0.0080    -2.4940    -6.7020 hc         1 0LU       0.050200
     46 H24         -0.9120    -3.8280    -5.9220 hc         1 0LU       0.050200
@<TRIPOS>BOND
     1    23    22 1   
     2    23    21 1   
     3    22    20 1   
     4    21    19 1   
     5    20    19 1   
     6    19    16 1   
     7    16    12 1   
     8    17    12 1   
     9    12     6 1   
    10     6     2 1   
    11     2     5 1   
    12     2     1 1   
    13    11    15 ar  
    14    11     5 ar  
    15    15    18 ar  
    16     5    10 ar  
    17    10    14 ar  
    18    10     7 1   
    19    18    14 ar  
    20     7     3 1   
    21     1     3 ar  
    22     1     4 ar  
    23     3     8 ar  
    24     4     9 ar  
    25     8    13 ar  
    26     9    13 ar  
    27     2    24 1   
    28     4    25 1   
    29     6    26 1   
    30     6    27 1   
    31     8    28 1   
    32     9    29 1   
    33    11    30 1   
    34    12    31 1   
    35    13    32 1   
    36    14    33 1   
    37    15    34 1   
    38    16    35 1   
    39    16    36 1   
    40    17    37 1   
    41    18    38 1   
    42    20    39 1   
    43    20    40 1   
    44    21    41 1   
    45    21    42 1   
    46    22    43 1   
    47    22    44 1   
    48    23    45 1   
    49    23    46 1   
@<TRIPOS>SUBSTRUCTURE
     1 0LU         1 TEMP              0 ****  ****    0 ROOT
