@<TRIPOS>MOLECULE
0LU
   46    49     1     0     0
SMALL
bcc


@<TRIPOS>ATOM
      1 C1           0.0200    -0.1820     0.1700 ca         1 0LU      -0.067300
      2 C2           1.5000     0.0050     0.0240 c3         1 0LU       0.019900
      3 C3          -0.5500    -0.7430     1.3200 ca         1 0LU      -0.024100
      4 C4          -0.8090     0.1780    -0.9010 ca         1 0LU      -0.115500
      5 C5           2.2030     0.2750     1.3180 ca         1 0LU      -0.067300
      6 C6           2.0840    -1.2270    -0.6750 c3         1 0LU      -0.069400
      7 S7           0.3430    -1.1810     2.6920 ss         1 0LU      -0.079800
      8 C8          -1.9330    -0.9630     1.3760 ca         1 0LU      -0.112500
      9 C9          -2.1820    -0.0420    -0.8390 ca         1 0LU      -0.131000
     10 C10          1.7610    -0.2670     2.5320 ca         1 0LU      -0.024100
     11 C11          3.3530     1.0780     1.3060 ca         1 0LU      -0.115500
     12 C12          3.4790    -0.9700    -1.2360 c3         1 0LU       0.141100
     13 C13         -2.7440    -0.6230     0.3000 ca         1 0LU      -0.122000
     14 C14          2.4970    -0.0440     3.7050 ca         1 0LU      -0.112500
     15 C15          4.0760     1.3000     2.4740 ca         1 0LU      -0.131000
     16 C16          4.0130    -2.2650    -1.8840 c3         1 0LU       0.127800
     17 O17          3.3610     0.0710    -2.1950 oh         1 0LU      -0.610800
     18 C18          3.6530     0.7250     3.6750 ca         1 0LU      -0.122000
     19 N19          5.4110    -2.1660    -2.2650 n3         1 0LU      -0.735600
     20 C20          6.3440    -2.1330    -1.1360 c3         1 0LU       0.158300
     21 C21          5.8420    -3.2140    -3.1940 c3         1 0LU       0.158300
     22 C22          7.4370    -3.1940    -1.3400 c3         1 0LU      -0.093900
     23 C23          7.1210    -3.8790    -2.6630 c3         1 0LU      -0.093900
     24 H1           1.6760     0.8910    -0.6600 hc         1 0LU       0.089700
     25 H2          -0.3630     0.6300    -1.8010 ha         1 0LU       0.141000
     26 H3           1.4030    -1.5120    -1.5180 hc         1 0LU       0.059200
     27 H4           2.1350    -2.0830     0.0450 hc         1 0LU       0.059200
     28 H5          -2.3750    -1.4030     2.2840 ha         1 0LU       0.140000
     29 H6          -2.8230     0.2410    -1.6870 ha         1 0LU       0.133000
     30 H7           3.6840     1.5280     0.3570 ha         1 0LU       0.141000
     31 H8           4.1700    -0.6310    -0.4100 h1         1 0LU       0.044700
     32 H9          -3.8280    -0.8030     0.3490 ha         1 0LU       0.134000
     33 H10          2.1440    -0.4760     4.6540 ha         1 0LU       0.140000
     34 H11          4.9790     1.9270     2.4520 ha         1 0LU       0.133000
     35 H12          3.4110    -2.4510    -2.8180 h1         1 0LU       0.044700
     36 H13          3.8220    -3.1180    -1.1700 h1         1 0LU       0.044700
     37 H14          4.2130     0.1410    -2.6440 ho         1 0LU       0.417000
     38 H15          4.2280     0.8920     4.5980 ha         1 0LU       0.134000
     39 H17          6.7990    -1.1050    -1.1160 h1         1 0LU       0.043700
     40 H18          5.8250    -2.2960    -0.1520 h1         1 0LU       0.043700
     41 H19          6.0430    -2.7120    -4.1800 h1         1 0LU       0.043700
     42 H20          5.0450    -3.9900    -3.3620 h1         1 0LU       0.043700
     43 H21          8.4450    -2.7130    -1.3680 hc         1 0LU       0.048200
     44 H22          7.4330    -3.9260    -0.4970 hc         1 0LU       0.048200
     45 H23          7.9570    -3.7500    -3.3920 hc         1 0LU       0.048200
     46 H24          6.9600    -4.9750    -2.5190 hc         1 0LU       0.048200
@<TRIPOS>BOND
     1     1     2 1   
     2     1     3 ar  
     3     1     4 ar  
     4     2     5 1   
     5     2     6 1   
     6     2    24 1   
     7     3     7 1   
     8     3     8 ar  
     9     4     9 ar  
    10     4    25 1   
    11     5    10 ar  
    12     5    11 ar  
    13     6    12 1   
    14     6    26 1   
    15     6    27 1   
    16     7    10 1   
    17     8    13 ar  
    18     8    28 1   
    19     9    13 ar  
    20     9    29 1   
    21    10    14 ar  
    22    11    15 ar  
    23    11    30 1   
    24    12    16 1   
    25    12    17 1   
    26    12    31 1   
    27    13    32 1   
    28    14    18 ar  
    29    14    33 1   
    30    15    18 ar  
    31    15    34 1   
    32    16    19 1   
    33    16    35 1   
    34    16    36 1   
    35    17    37 1   
    36    18    38 1   
    37    19    20 1   
    38    19    21 1   
    39    20    22 1   
    40    20    39 1   
    41    20    40 1   
    42    21    23 1   
    43    21    41 1   
    44    21    42 1   
    45    22    23 1   
    46    22    43 1   
    47    22    44 1   
    48    23    45 1   
    49    23    46 1   
@<TRIPOS>SUBSTRUCTURE
     1 0LU         1 TEMP              0 ****  ****    0 ROOT
