@<TRIPOS>MOLECULE
0LV
   27    28     1     0     0
SMALL
bcc


@<TRIPOS>ATOM
      1 CAH          0.0000     0.0000     0.0000 c3         1 0LV       0.017900
      2 CAM          1.5470     0.0000     0.0000 c3         1 0LV       0.147800
      3 CAA          2.0890     1.2580    -0.6790 c3         1 0LV      -0.005100
      4 CAB          2.0890    -1.2610    -0.6780 c3         1 0LV      -0.005100
      5 OAI          1.8650     0.0000     1.4020 os         1 0LV      -0.292900
      6 CAL          0.8540    -0.5940     2.0930 ca         1 0LV       0.137100
      7 CAK         -0.3130    -0.6350     1.3410 ca         1 0LV      -0.189300
      8 CAF         -1.4660    -1.1850     1.8560 ca         1 0LV      -0.048000
      9 CAD         -1.4680    -1.7120     3.1360 ca         1 0LV      -0.139000
     10 CAE         -0.3100    -1.6830     3.8920 ca         1 0LV      -0.049000
     11 CAJ          0.8440    -1.1300     3.3780 ca         1 0LV      -0.127300
     12 CAG          2.1000    -1.1050     4.2110 c3         1 0LV       0.290700
     13 OAC          1.8420    -1.7080     5.4810 oh         1 0LV      -0.597800
     14 H1          -0.3850     1.0120    -0.0460 hc         1 0LV       0.031200
     15 H2          -0.3850    -0.6060    -0.8120 hc         1 0LV       0.031200
     16 H3           3.1720     1.2360    -0.6700 hc         1 0LV       0.014033
     17 H4           1.7380     1.2960    -1.7030 hc         1 0LV       0.014033
     18 H5           1.7420     2.1350    -0.1460 hc         1 0LV       0.014033
     19 H6           1.8940    -1.2100    -1.7420 hc         1 0LV       0.014033
     20 H7           3.1560    -1.3310    -0.5090 hc         1 0LV       0.014033
     21 H8           1.5990    -2.1330    -0.2620 hc         1 0LV       0.014033
     22 H9          -2.3700    -1.2050     1.2600 ha         1 0LV       0.100000
     23 H10         -2.3730    -2.1470     3.5430 ha         1 0LV       0.106000
     24 H11         -0.3110    -2.0950     4.8940 ha         1 0LV       0.126000
     25 H12          2.8820    -1.6560     3.7020 h1         1 0LV      -0.005800
     26 H13          2.4170    -0.0800     4.3560 h1         1 0LV      -0.005800
     27 H14          2.6270    -1.6940     6.0020 ho         1 0LV       0.391000
@<TRIPOS>BOND
     1     1     2 1   
     2     1     7 1   
     3     1    14 1   
     4     1    15 1   
     5     2     3 1   
     6     2     4 1   
     7     2     5 1   
     8     3    16 1   
     9     3    17 1   
    10     3    18 1   
    11     4    19 1   
    12     4    20 1   
    13     4    21 1   
    14     5     6 1   
    15     6     7 ar  
    16     6    11 ar  
    17     7     8 ar  
    18     8     9 ar  
    19     8    22 1   
    20     9    10 ar  
    21     9    23 1   
    22    10    11 ar  
    23    10    24 1   
    24    11    12 1   
    25    12    13 1   
    26    12    25 1   
    27    12    26 1   
    28    13    27 1   
@<TRIPOS>SUBSTRUCTURE
     1 0LV         1 TEMP              0 ****  ****    0 ROOT
