@<TRIPOS>MOLECULE
0LV
   27    28     1     0     0
SMALL
bcc


@<TRIPOS>ATOM
      1 CAH          0.2770    -0.6670    -0.4320 c3         1 0LV      -0.046100
      2 CAM          1.7510    -0.2610    -0.1590 c3         1 0LV       0.148800
      3 CAA          1.9050     1.2360     0.0240 c3         1 0LV      -0.101600
      4 CAB          2.6950    -0.7950    -1.2190 c3         1 0LV      -0.101600
      5 OAI          2.1420    -0.8910     1.1170 os         1 0LV      -0.337900
      6 CAL          1.0520    -1.6000     1.5940 ca         1 0LV       0.122100
      7 CAK         -0.0760    -1.5170     0.7400 ca         1 0LV      -0.154300
      8 CAF         -1.2440    -2.1740     1.0770 ca         1 0LV      -0.079000
      9 CAD         -1.2750    -2.9100     2.2710 ca         1 0LV      -0.164000
     10 CAE         -0.1620    -2.9810     3.1030 ca         1 0LV      -0.087000
     11 CAJ          1.0400    -2.3250     2.7830 ca         1 0LV      -0.143300
     12 CAG          2.2380    -2.4350     3.6650 c3         1 0LV       0.190700
     13 OAC          2.8050    -1.1860     4.0060 oh         1 0LV      -0.598800
     14 H1          -0.3790     0.2370    -0.4970 hc         1 0LV       0.066200
     15 H2           0.1920    -1.2340    -1.3920 hc         1 0LV       0.066200
     16 H3           2.9580     1.4800     0.3050 hc         1 0LV       0.049700
     17 H4           1.6510     1.7570    -0.9290 hc         1 0LV       0.049700
     18 H5           1.2290     1.6000     0.8340 hc         1 0LV       0.049700
     19 H6           2.4610    -0.3190    -2.2010 hc         1 0LV       0.049700
     20 H7           3.7510    -0.5630    -0.9410 hc         1 0LV       0.049700
     21 H8           2.5880    -1.9020    -1.3120 hc         1 0LV       0.049700
     22 H9          -2.1310    -2.1240     0.4300 ha         1 0LV       0.136000
     23 H10         -2.1980    -3.4370     2.5530 ha         1 0LV       0.134000
     24 H11         -0.2160    -3.5610     4.0370 ha         1 0LV       0.136000
     25 H12          3.0120    -3.0740     3.1550 h1         1 0LV       0.049700
     26 H13          1.9680    -2.8970     4.6540 h1         1 0LV       0.049700
     27 H14          2.9960    -0.7170     3.1840 ho         1 0LV       0.414000
@<TRIPOS>BOND
     1     1     2 1   
     2     1     7 1   
     3     1    14 1   
     4     1    15 1   
     5     2     3 1   
     6     2     4 1   
     7     2     5 1   
     8     3    16 1   
     9     3    17 1   
    10     3    18 1   
    11     4    19 1   
    12     4    20 1   
    13     4    21 1   
    14     5     6 1   
    15     6     7 ar  
    16     6    11 ar  
    17     7     8 ar  
    18     8     9 ar  
    19     8    22 1   
    20     9    10 ar  
    21     9    23 1   
    22    10    11 ar  
    23    10    24 1   
    24    11    12 1   
    25    12    13 1   
    26    12    25 1   
    27    12    26 1   
    28    13    27 1   
@<TRIPOS>SUBSTRUCTURE
     1 0LV         1 TEMP              0 ****  ****    0 ROOT
