@<TRIPOS>MOLECULE
0LW
   46    49     1     0     0
SMALL
bcc


@<TRIPOS>ATOM
      1 C1           0.0000     0.0000     0.0000 ca         1 0LW      -0.077300
      2 C2           1.4930     0.0000     0.0000 c3         1 0LW       0.073900
      3 C3          -0.7630    -0.5730     1.0000 ca         1 0LW       0.059900
      4 C4          -0.6440     0.6040    -1.0750 ca         1 0LW      -0.068000
      5 C5           2.1440     0.0000     1.3440 ca         1 0LW      -0.077300
      6 C6           1.9720    -1.2360    -0.7640 c3         1 0LW      -0.066400
      7 S7          -0.0100    -1.3300     2.3990 ss         1 0LW      -0.283800
      8 C8          -2.1540    -0.5560     0.9180 ca         1 0LW      -0.073000
      9 C9          -2.0210     0.6240    -1.1530 ca         1 0LW      -0.098500
     10 C10          1.5750    -0.5700     2.4680 ca         1 0LW       0.059900
     11 C11          3.3910     0.6070     1.4550 ca         1 0LW      -0.068000
     12 C12          3.4960    -1.1990    -0.8880 c3         1 0LW       0.181100
     13 C13         -2.7810     0.0410    -0.1560 ca         1 0LW      -0.097000
     14 C14          2.2540    -0.5470     3.6840 ca         1 0LW      -0.073000
     15 C15          4.0580     0.6340     2.6620 ca         1 0LW      -0.098500
     16 C16          3.9650    -2.3680    -1.7580 c3         1 0LW       0.114800
     17 O17          4.0840    -1.3060     0.4100 oh         1 0LW      -0.587800
     18 C18          3.4920     0.0530     3.7820 ca         1 0LW      -0.097000
     19 N19          5.4280    -2.3330    -1.8770 n3         1 0LW      -0.533600
     20 C20          5.9000    -3.2960    -2.8970 c3         1 0LW       0.140300
     21 C21          6.0770    -2.7400    -0.6050 c3         1 0LW       0.140300
     22 C22          7.2570    -3.8390    -2.4110 c3         1 0LW      -0.028900
     23 C23          7.5030    -3.1510    -1.0490 c3         1 0LW      -0.028900
     24 H1           1.8260     0.8820    -0.5330 hc         1 0LW       0.039700
     25 H2          -0.0570     1.0630    -1.8620 ha         1 0LW       0.109000
     26 H3           1.6750    -2.1290    -0.2280 hc         1 0LW       0.031200
     27 H4           1.5290    -1.2440    -1.7530 hc         1 0LW       0.031200
     28 H5          -2.7460    -1.0130     1.7010 ha         1 0LW       0.116000
     29 H6          -2.5080     1.0940    -1.9990 ha         1 0LW       0.104000
     30 H7           3.8430     1.0650     0.5830 ha         1 0LW       0.109000
     31 H8           3.7990    -0.2650    -1.3450 h1         1 0LW       0.048700
     32 H9          -3.8630     0.0560    -0.2150 ha         1 0LW       0.105500
     33 H10          1.8070    -1.0030     4.5590 ha         1 0LW       0.116000
     34 H11          5.0300     1.1070     2.7320 ha         1 0LW       0.104000
     35 H12          3.6620    -3.3030    -1.3010 h1         1 0LW       0.014700
     36 H13          3.5200    -2.2870    -2.7420 h1         1 0LW       0.014700
     37 H14          3.8810    -2.1500     0.7780 ho         1 0LW       0.395000
     38 H15          4.0150     0.0740     4.7300 ha         1 0LW       0.105500
     39 H17          6.0240    -2.7940    -3.8490 h1         1 0LW       0.018200
     40 H18          5.1900    -4.1090    -2.9920 h1         1 0LW       0.018200
     41 H19          6.1190    -1.9060     0.0850 h1         1 0LW       0.018200
     42 H20          5.5580    -3.5830    -0.1650 h1         1 0LW       0.018200
     43 H21          8.0390    -3.5740    -3.1120 hc         1 0LW       0.018200
     44 H22          7.2060    -4.9140    -2.2840 hc         1 0LW       0.018200
     45 H23          8.1310    -2.2770    -1.1720 hc         1 0LW       0.018200
     46 H24          7.9370    -3.8480    -0.3430 hc         1 0LW       0.018200
@<TRIPOS>BOND
     1     1     2 1   
     2     1     3 ar  
     3     1     4 ar  
     4     2     5 1   
     5     2     6 1   
     6     2    24 1   
     7     3     7 1   
     8     3     8 ar  
     9     4     9 ar  
    10     4    25 1   
    11     5    10 ar  
    12     5    11 ar  
    13     6    12 1   
    14     6    26 1   
    15     6    27 1   
    16     7    10 1   
    17     8    13 ar  
    18     8    28 1   
    19     9    13 ar  
    20     9    29 1   
    21    10    14 ar  
    22    11    15 ar  
    23    11    30 1   
    24    12    16 1   
    25    12    17 1   
    26    12    31 1   
    27    13    32 1   
    28    14    18 ar  
    29    14    33 1   
    30    15    18 ar  
    31    15    34 1   
    32    16    19 1   
    33    16    35 1   
    34    16    36 1   
    35    17    37 1   
    36    18    38 1   
    37    19    20 1   
    38    19    21 1   
    39    20    22 1   
    40    20    39 1   
    41    20    40 1   
    42    21    23 1   
    43    21    41 1   
    44    21    42 1   
    45    22    23 1   
    46    22    43 1   
    47    22    44 1   
    48    23    45 1   
    49    23    46 1   
@<TRIPOS>SUBSTRUCTURE
     1 0LW         1 TEMP              0 ****  ****    0 ROOT
