@<TRIPOS>MOLECULE
0LW
   46    49     1     0     0
SMALL
bcc


@<TRIPOS>ATOM
      1 C1           0.0040    -0.0200     0.0170 ca         1 0LW      -0.067300
      2 C2           1.4940    -0.1660     0.0280 c3         1 0LW       0.019900
      3 C3          -0.8020    -0.5350     1.0420 ca         1 0LW      -0.024100
      4 C4          -0.6020     0.6350    -1.0650 ca         1 0LW      -0.115500
      5 C5           2.0880    -0.1740     1.4040 ca         1 0LW      -0.067300
      6 C6           1.9280    -1.4420    -0.7020 c3         1 0LW      -0.069400
      7 S7          -0.1890    -1.2710     2.4380 ss         1 0LW      -0.079800
      8 C8          -2.1980    -0.4360     0.9480 ca         1 0LW      -0.112500
      9 C9          -1.9870     0.7350    -1.1500 ca         1 0LW      -0.131000
     10 C10          1.4010    -0.6910     2.5100 ca         1 0LW      -0.024100
     11 C11          3.3920     0.3140     1.5730 ca         1 0LW      -0.115500
     12 C12          1.7300    -1.3440    -2.2110 c3         1 0LW       0.141100
     13 C13         -2.7880     0.1860    -0.1460 ca         1 0LW      -0.122000
     14 C14          2.0320    -0.7400     3.7610 ca         1 0LW      -0.112500
     15 C15          4.0120     0.2630     2.8170 ca         1 0LW      -0.131000
     16 C16          2.1510    -2.6760    -2.8660 c3         1 0LW       0.127800
     17 O17          2.5390    -0.2700    -2.6720 oh         1 0LW      -0.610800
     18 C18          3.3320    -0.2740     3.9130 ca         1 0LW      -0.122000
     19 N19          1.8080    -2.7410    -4.2760 n3         1 0LW      -0.735600
     20 C20          0.3720    -2.8550    -4.5440 c3         1 0LW       0.158300
     21 C21          2.5030    -3.8070    -5.0020 c3         1 0LW       0.158300
     22 C22          0.1180    -4.0370    -5.4920 c3         1 0LW      -0.093900
     23 C23          1.4830    -4.6400    -5.7930 c3         1 0LW      -0.093900
     24 H1           1.9350     0.7090    -0.5400 hc         1 0LW       0.089700
     25 H2           0.0340     1.0670    -1.8550 ha         1 0LW       0.141000
     26 H3           1.3450    -2.3170    -0.3160 hc         1 0LW       0.059200
     27 H4           3.0150    -1.6180    -0.4900 hc         1 0LW       0.059200
     28 H5          -2.8240    -0.8470     1.7550 ha         1 0LW       0.140000
     29 H6          -2.4500     1.2470    -2.0050 ha         1 0LW       0.133000
     30 H7           3.9280     0.7310     0.7060 ha         1 0LW       0.141000
     31 H8           0.6510    -1.1150    -2.4440 h1         1 0LW       0.044700
     32 H9          -3.8830     0.2550    -0.2140 ha         1 0LW       0.134000
     33 H10          1.4850    -1.1470     4.6260 ha         1 0LW       0.140000
     34 H11          5.0360     0.6450     2.9380 ha         1 0LW       0.133000
     35 H12          3.2710    -2.7610    -2.7770 h1         1 0LW       0.044700
     36 H13          1.6900    -3.5180    -2.2730 h1         1 0LW       0.044700
     37 H14          2.5180    -0.2930    -3.6360 ho         1 0LW       0.417000
     38 H15          3.8220    -0.3220     4.8970 ha         1 0LW       0.134000
     39 H17          0.0510    -1.8920    -5.0280 h1         1 0LW       0.043700
     40 H18         -0.2270    -2.9790    -3.6000 h1         1 0LW       0.043700
     41 H19          3.0950    -4.4740    -4.3160 h1         1 0LW       0.043700
     42 H20          3.2270    -3.3070    -5.7010 h1         1 0LW       0.043700
     43 H21         -0.5560    -4.7870    -5.0100 hc         1 0LW       0.048200
     44 H22         -0.3810    -3.6840    -6.4280 hc         1 0LW       0.048200
     45 H23          1.7100    -4.5960    -6.8860 hc         1 0LW       0.048200
     46 H24          1.5270    -5.7120    -5.4800 hc         1 0LW       0.048200
@<TRIPOS>BOND
     1     1     2 1   
     2     1     3 ar  
     3     1     4 ar  
     4     2     5 1   
     5     2     6 1   
     6     2    24 1   
     7     3     7 1   
     8     3     8 ar  
     9     4     9 ar  
    10     4    25 1   
    11     5    10 ar  
    12     5    11 ar  
    13     6    12 1   
    14     6    26 1   
    15     6    27 1   
    16     7    10 1   
    17     8    13 ar  
    18     8    28 1   
    19     9    13 ar  
    20     9    29 1   
    21    10    14 ar  
    22    11    15 ar  
    23    11    30 1   
    24    12    16 1   
    25    12    17 1   
    26    12    31 1   
    27    13    32 1   
    28    14    18 ar  
    29    14    33 1   
    30    15    18 ar  
    31    15    34 1   
    32    16    19 1   
    33    16    35 1   
    34    16    36 1   
    35    17    37 1   
    36    18    38 1   
    37    19    20 1   
    38    19    21 1   
    39    20    22 1   
    40    20    39 1   
    41    20    40 1   
    42    21    23 1   
    43    21    41 1   
    44    21    42 1   
    45    22    23 1   
    46    22    43 1   
    47    22    44 1   
    48    23    45 1   
    49    23    46 1   
@<TRIPOS>SUBSTRUCTURE
     1 0LW         1 TEMP              0 ****  ****    0 ROOT
