@<TRIPOS>MOLECULE
molecule
   57    58     1     0     0
SMALL
bcc


@<TRIPOS>ATOM
      1 O01          0.0000     0.0000     0.0000 o          1 0LX      -0.575100
      2 C02          1.2120     0.0000     0.0000 c          1 0LX       0.669100
      3 N03          1.8870     0.0000     1.1660 ns         1 0LX      -0.477400
      4 O04          1.1830     0.1050     2.3910 oh         1 0LX      -0.365100
      5 C05          1.9660    -0.0050    -1.3060 c3         1 0LX      -0.138700
      6 C06          2.0880    -1.4420    -1.8180 c3         1 0LX      -0.071400
      7 C07          2.9400    -2.2590    -0.8450 c3         1 0LX      -0.092400
      8 C08          3.1500    -3.6670    -1.4080 c3         1 0LX      -0.079400
      9 C09          4.0020    -4.4830    -0.4340 c3         1 0LX       0.154800
     10 N10          4.2030    -5.8350    -0.9750 n7         1 0LX      -0.814200
     11 C11          5.0190    -6.6490    -0.0650 c3         1 0LX       0.205100
     12 C12          5.2030    -8.0260    -0.6520 ca         1 0LX      -0.103300
     13 C13          6.2800    -8.2850    -1.4790 ca         1 0LX      -0.090000
     14 C14          6.4490    -9.5470    -2.0170 ca         1 0LX      -0.168500
     15 C15          5.5420   -10.5510    -1.7280 ca         1 0LX       0.135900
     16 C16          4.4630   -10.2890    -0.8990 ca         1 0LX      -0.168500
     17 C17          4.2980    -9.0280    -0.3580 ca         1 0LX      -0.090000
     18 F18          5.7060   -11.7840    -2.2530 f          1 0LX      -0.140900
     19 C19          1.2090     0.8390    -2.3340 c3         1 0LX      -0.079400
     20 C20          1.2040     2.3030    -1.8870 c3         1 0LX       0.185400
     21 O21          2.5410     2.8080    -1.8920 os         1 0LX      -0.425600
     22 C22          3.1310     2.9080    -0.5950 c3         1 0LX       0.126700
     23 C23          0.3560     3.1140    -2.8310 ca         1 0LX      -0.110300
     24 C24         -0.9390     3.4480    -2.4830 ca         1 0LX      -0.083000
     25 C25         -1.7180     4.1920    -3.3490 ca         1 0LX      -0.172000
     26 C26         -1.2000     4.6030    -4.5660 ca         1 0LX       0.135900
     27 C27          0.0970     4.2680    -4.9140 ca         1 0LX      -0.172000
     28 C28          0.8760     3.5280    -4.0440 ca         1 0LX      -0.083000
     29 F29         -1.9600     5.3300    -5.4140 f          1 0LX      -0.142900
     30 H1           2.8860    -0.0630     1.1670 hn         1 0LX       0.319500
     31 H2           1.7980     0.1330     3.1050 ho         1 0LX       0.398000
     32 H3           2.9550     0.4100    -1.1540 hc         1 0LX       0.062700
     33 H4           2.5580    -1.4380    -2.7940 hc         1 0LX       0.060700
     34 H5           1.1020    -1.8830    -1.8940 hc         1 0LX       0.060700
     35 H6           3.9010    -1.7760    -0.7130 hc         1 0LX       0.041200
     36 H7           2.4340    -2.3240     0.1110 hc         1 0LX       0.041200
     37 H8           2.1890    -4.1500    -1.5390 hc         1 0LX       0.053200
     38 H9           3.6550    -3.6020    -2.3640 hc         1 0LX       0.053200
     39 H10          4.9630    -4.0000    -0.3030 h1         1 0LX       0.030700
     40 H11          3.4970    -4.5480     0.5220 h1         1 0LX       0.030700
     41 H12          3.3140    -6.2750    -1.1100 hn         1 0LX       0.357800
     42 H14          4.5220    -6.7290     0.8940 h1         1 0LX       0.038200
     43 H15          5.9870    -6.1820     0.0680 h1         1 0LX       0.038200
     44 H16          6.9910    -7.5000    -1.7050 ha         1 0LX       0.138000
     45 H17          7.2930    -9.7500    -2.6650 ha         1 0LX       0.145500
     46 H18          3.7530   -11.0750    -0.6700 ha         1 0LX       0.145500
     47 H19          3.4550    -8.8230     0.2900 ha         1 0LX       0.138000
     48 H20          0.1900     0.4830    -2.4140 hc         1 0LX       0.072200
     49 H21          1.6980     0.7580    -3.2980 hc         1 0LX       0.072200
     50 H22          0.7960     2.3730    -0.8860 h1         1 0LX       0.058700
     51 H23          3.7160     3.8180    -0.5330 h1         1 0LX       0.029700
     52 H24          2.3510     2.9290     0.1570 h1         1 0LX       0.029700
     53 H25          3.7740     2.0530    -0.4240 h1         1 0LX       0.029700
     54 H26         -1.3440     3.1260    -1.5320 ha         1 0LX       0.146000
     55 H27         -2.7330     4.4530    -3.0760 ha         1 0LX       0.145500
     56 H28          0.5040     4.5910    -5.8640 ha         1 0LX       0.145500
     57 H29          1.8910     3.2650    -4.3150 ha         1 0LX       0.146000
@<TRIPOS>BOND
     1    16    17 ar  
     2    16    15 ar  
     3    18    15 1   
     4    17    12 ar  
     5    15    14 ar  
     6     9     8 1   
     7     9    10 1   
     8     7     8 1   
     9     7     6 1   
    10    12    11 1   
    11    12    13 ar  
    12    14    13 ar  
    13     6     5 1   
    14    11    10 1   
    15     5    19 1   
    16     5     2 1   
    17    19    20 1   
    18    21    22 1   
    19    21    20 1   
    20    28    27 ar  
    21    28    23 ar  
    22     2     3 1   
    23     2     1 2   
    24    20    23 1   
    25     3     4 1   
    26    27    26 ar  
    27    23    24 ar  
    28    26    29 1   
    29    26    25 ar  
    30    24    25 ar  
    31     3    30 1   
    32     4    31 1   
    33     5    32 1   
    34     6    33 1   
    35     6    34 1   
    36     7    35 1   
    37     7    36 1   
    38     8    37 1   
    39     8    38 1   
    40     9    39 1   
    41     9    40 1   
    42    10    41 1   
    43    11    42 1   
    44    11    43 1   
    45    13    44 1   
    46    14    45 1   
    47    16    46 1   
    48    17    47 1   
    49    19    48 1   
    50    19    49 1   
    51    20    50 1   
    52    22    51 1   
    53    22    52 1   
    54    22    53 1   
    55    24    54 1   
    56    25    55 1   
    57    27    56 1   
    58    28    57 1   
@<TRIPOS>SUBSTRUCTURE
     1 0LX         1 TEMP              0 ****  ****    0 ROOT
