@<TRIPOS>MOLECULE
0LX
   59    60     1     0     0
SMALL
bcc


@<TRIPOS>ATOM
      1 O01          0.5360    -0.6840     2.5010 o          1 0LX      -0.428100
      2 C02          0.8870     0.2790     1.8390 c          1 0LX       0.547100
      3 N03          1.7000     1.3170     2.6150 ny         1 0LX      -0.458300
      4 O04          2.2340     0.8510     3.7620 oh         1 0LX      -0.349300
      5 C05          0.6570     0.5890     0.3800 c3         1 0LX      -0.119700
      6 C06         -0.2010    -0.5060    -0.2500 c3         1 0LX      -0.084400
      7 C07          0.5130    -1.8370    -0.3930 c3         1 0LX      -0.096400
      8 C08         -0.3290    -2.7810    -1.2290 c3         1 0LX      -0.112400
      9 C09          0.3540    -4.1120    -1.5100 c3         1 0LX       0.099800
     10 N10          0.2040    -5.1140    -0.4150 ny         1 0LX      -0.769000
     11 C11          0.9200    -6.4080    -0.7170 c3         1 0LX       0.180100
     12 C12          2.3840    -6.3030    -0.4890 ca         1 0LX      -0.221300
     13 C13          2.9070    -6.5150     0.7940 ca         1 0LX      -0.073000
     14 C14          4.2780    -6.4880     1.0100 ca         1 0LX      -0.163500
     15 C15          5.1480    -6.2520    -0.0760 ca         1 0LX       0.195900
     16 C16          4.6260    -6.0480    -1.3710 ca         1 0LX      -0.163500
     17 C17          3.2510    -6.0760    -1.5670 ca         1 0LX      -0.073000
     18 F18          6.4790    -6.2220     0.1240 f          1 0LX      -0.095900
     19 C19          0.0020     1.9580     0.1980 c3         1 0LX      -0.098400
     20 C20          0.9580     3.0760    -0.2350 c3         1 0LX       0.192400
     21 O21          1.8130     3.3440     0.8820 os         1 0LX      -0.524600
     22 C22          2.4470     4.6230     0.8240 c3         1 0LX       0.116700
     23 C23          1.7270     2.7230    -1.4710 ca         1 0LX      -0.179300
     24 C24          1.0990     2.8550    -2.7170 ca         1 0LX      -0.099500
     25 C25          1.7790     2.5480    -3.8890 ca         1 0LX      -0.160000
     26 C26          3.1160     2.1060    -3.8210 ca         1 0LX       0.161900
     27 C27          3.7590     1.9880    -2.5730 ca         1 0LX      -0.160000
     28 C28          3.0580     2.2980    -1.4130 ca         1 0LX      -0.099500
     29 F29          3.7840     1.7990    -4.9530 f          1 0LX      -0.108900
     30 H1           1.1140     2.1600     2.7960 hn         1 0LX       0.502800
     31 H2           1.5500     0.3300     4.2500 ho         1 0LX       0.481000
     32 H3           1.6710     0.6000    -0.1300 hc         1 0LX       0.128700
     33 H4          -0.5040    -0.1480    -1.2730 hc         1 0LX       0.085200
     34 H5          -1.1390    -0.6410     0.3520 hc         1 0LX       0.085200
     35 H6           0.7020    -2.2770     0.6210 hc         1 0LX       0.053700
     36 H7           1.5090    -1.6840    -0.8890 hc         1 0LX       0.053700
     37 H8          -1.3310    -2.9330    -0.7440 hc         1 0LX       0.088700
     38 H9          -0.5260    -2.3060    -2.2320 hc         1 0LX       0.088700
     39 H10         -0.0920    -4.5680    -2.4430 hx         1 0LX       0.113700
     40 H11          1.4600    -3.9650    -1.6840 hx         1 0LX       0.113700
     41 H12         -0.7930    -5.3090    -0.2740 hn         1 0LX       0.447800
     42 H14          0.4710    -7.1910    -0.0360 hx         1 0LX       0.115200
     43 H15          0.6920    -6.6860    -1.7860 hx         1 0LX       0.115200
     44 H16          2.2340    -6.7320     1.6390 ha         1 0LX       0.145000
     45 H17          4.6980    -6.6690     2.0130 ha         1 0LX       0.181500
     46 H18          5.3150    -5.8880    -2.2170 ha         1 0LX       0.181500
     47 H19          2.8490    -5.9430    -2.5840 ha         1 0LX       0.145000
     48 H20         -0.5290     2.2740     1.1340 hc         1 0LX       0.083200
     49 H21         -0.7800     1.8840    -0.6090 hc         1 0LX       0.083200
     50 H22          0.3340     3.9990    -0.4380 h1         1 0LX       0.090700
     51 H23          1.6770     5.4320     0.8600 h1         1 0LX       0.063700
     52 H24          3.0960     4.6490     1.7340 h1         1 0LX       0.063700
     53 H25          3.0610     4.7050    -0.1070 h1         1 0LX       0.063700
     54 H26          0.0610     3.2210    -2.7760 ha         1 0LX       0.138000
     55 H27          1.2930     2.6630    -4.8720 ha         1 0LX       0.171500
     56 H28          4.8130     1.6730    -2.5310 ha         1 0LX       0.171500
     57 H29          3.5700     2.2400    -0.4390 ha         1 0LX       0.138000
     58 H032         2.5070     1.6420     2.0300 hn         1 0LX       0.502800
     59 H102         0.5830    -4.7220     0.4550 hn         1 0LX       0.447800
@<TRIPOS>BOND
     1     1     2 2   
     2     2     3 1   
     3     2     5 1   
     4     3     4 1   
     5     3    30 1   
     6     3    58 1   
     7     4    31 1   
     8     5     6 1   
     9     5    19 1   
    10     5    32 1   
    11     6     7 1   
    12     6    33 1   
    13     6    34 1   
    14     7     8 1   
    15     7    35 1   
    16     7    36 1   
    17     8     9 1   
    18     8    37 1   
    19     8    38 1   
    20     9    10 1   
    21     9    39 1   
    22     9    40 1   
    23    10    11 1   
    24    10    41 1   
    25    10    59 1   
    26    11    12 1   
    27    11    42 1   
    28    11    43 1   
    29    12    13 ar  
    30    12    17 ar  
    31    13    14 ar  
    32    13    44 1   
    33    14    15 ar  
    34    14    45 1   
    35    15    16 ar  
    36    15    18 1   
    37    16    17 ar  
    38    16    46 1   
    39    17    47 1   
    40    19    20 1   
    41    19    48 1   
    42    19    49 1   
    43    20    21 1   
    44    20    23 1   
    45    20    50 1   
    46    21    22 1   
    47    22    51 1   
    48    22    52 1   
    49    22    53 1   
    50    23    24 ar  
    51    23    28 ar  
    52    24    25 ar  
    53    24    54 1   
    54    25    26 ar  
    55    25    55 1   
    56    26    27 ar  
    57    26    29 1   
    58    27    28 ar  
    59    27    56 1   
    60    28    57 1   
@<TRIPOS>SUBSTRUCTURE
     1 0LX         1 TEMP              0 ****  ****    0 ROOT
