@<TRIPOS>MOLECULE
0LY
   47    48     1     0     0
SMALL
bcc


@<TRIPOS>ATOM
      1 C2           0.0000     0.0000     0.0000 ca         1 0LY       0.024100
      2 C7           1.3850     0.0000     0.0000 ca         1 0LY      -0.065000
      3 C6           2.0760     0.0000     1.1950 ca         1 0LY      -0.108500
      4 C5           1.3810     0.0010     2.3990 ca         1 0LY      -0.095400
      5 N8           2.0780     0.0030     3.6100 ns         1 0LY       0.009900
      6 C9           1.5690    -0.6380     4.6810 c          1 0LY       0.489100
      7 O23          0.5550    -1.2960     4.5690 o          1 0LY      -0.638100
      8 C10          2.2530    -0.5380     6.0050 c          1 0LY       0.500100
      9 O22          3.2680     0.1180     6.1170 o          1 0LY      -0.657100
     10 N11          1.7440    -1.1790     7.0770 ns         1 0LY      -0.139900
     11 C12          2.4170    -1.0820     8.3780 c3         1 0LY       0.000700
     12 C17          1.3970    -1.3240     9.4900 c3         1 0LY      -0.035900
     13 C16          2.0740    -1.2520    10.8570 c3         1 0LY       0.122200
     14 C21          1.0700    -1.7870    11.9020 c3         1 0LY      -0.019350
     15 C20          2.3590     0.2130    11.2110 c3         1 0LY      -0.019350
     16 N15          3.2780    -2.0520    10.9350 n7         1 0LY      -0.573200
     17 C14          4.2010    -2.0930     9.8210 c3         1 0LY       0.122200
     18 C19          5.1540    -0.8920     9.8460 c3         1 0LY      -0.019350
     19 C18          5.0660    -3.3660     9.9570 c3         1 0LY      -0.019350
     20 C13          3.4990    -2.1580     8.4670 c3         1 0LY      -0.035900
     21 C4          -0.0080     0.0020     2.3950 ca         1 0LY      -0.108500
     22 C3          -0.6950     0.0060     1.1970 ca         1 0LY      -0.065000
     23 Br          -0.9420    -0.0010    -1.6390 br         1 0LY      -0.130100
     24 H1           1.9260    -0.0030    -0.9380 ha         1 0LY       0.117500
     25 H2           3.1590     0.0000     1.1950 ha         1 0LY       0.126000
     26 H3           2.9310     0.5200     3.6950 hn         1 0LY       0.189500
     27 H4           0.9120    -1.7260     6.9830 hn         1 0LY       0.194500
     28 H5           2.8630    -0.1020     8.4950 h1         1 0LY       0.066700
     29 H6           0.9570    -2.3050     9.3620 hc         1 0LY       0.030700
     30 H7           0.6230    -0.5690     9.4350 hc         1 0LY       0.030700
     31 H8           0.1460    -1.2240    11.8360 hc         1 0LY       0.010950
     32 H9           0.8690    -2.8340    11.7070 hc         1 0LY       0.010950
     33 H10          1.4890    -1.6780    12.8940 hc         1 0LY       0.010950
     34 H11          2.9780     0.2560    12.0990 hc         1 0LY       0.010950
     35 H12          1.4240     0.7280    11.3970 hc         1 0LY       0.010950
     36 H13          2.8760     0.6890    10.3870 hc         1 0LY       0.010950
     37 H14          3.7760    -1.8250    11.7730 hn         1 0LY       0.265800
     38 H16          5.6170    -0.8180    10.8230 hc         1 0LY       0.010950
     39 H17          4.5970     0.0150     9.6410 hc         1 0LY       0.010950
     40 H18          5.9200    -1.0230     9.0920 hc         1 0LY       0.010950
     41 H19          5.7460    -3.4320     9.1160 hc         1 0LY       0.010950
     42 H20          4.4250    -4.2380     9.9720 hc         1 0LY       0.010950
     43 H21          5.6350    -3.3190    10.8780 hc         1 0LY       0.010950
     44 H22          4.2260    -1.9980     7.6800 hc         1 0LY       0.030700
     45 H23          3.0430    -3.1330     8.3470 hc         1 0LY       0.030700
     46 H24         -0.5530     0.0050     3.3320 ha         1 0LY       0.126000
     47 H25         -1.7780     0.0060     1.1940 ha         1 0LY       0.117500
@<TRIPOS>BOND
     1     1     2 ar  
     2     1    22 ar  
     3     1    23 1   
     4     2     3 ar  
     5     2    24 1   
     6     3     4 ar  
     7     3    25 1   
     8     4     5 1   
     9     4    21 ar  
    10     5     6 1   
    11     5    26 1   
    12     6     7 2   
    13     6     8 1   
    14     8     9 2   
    15     8    10 1   
    16    10    11 1   
    17    10    27 1   
    18    11    12 1   
    19    11    20 1   
    20    11    28 1   
    21    12    13 1   
    22    12    29 1   
    23    12    30 1   
    24    13    14 1   
    25    13    15 1   
    26    13    16 1   
    27    14    31 1   
    28    14    32 1   
    29    14    33 1   
    30    15    34 1   
    31    15    35 1   
    32    15    36 1   
    33    16    17 1   
    34    16    37 1   
    35    17    18 1   
    36    17    19 1   
    37    17    20 1   
    38    18    38 1   
    39    18    39 1   
    40    18    40 1   
    41    19    41 1   
    42    19    42 1   
    43    19    43 1   
    44    20    44 1   
    45    20    45 1   
    46    21    22 ar  
    47    21    46 1   
    48    22    47 1   
@<TRIPOS>SUBSTRUCTURE
     1 0LY         1 TEMP              0 ****  ****    0 ROOT
