@<TRIPOS>MOLECULE
0LY
   48    49     1     0     0
SMALL
bcc


@<TRIPOS>ATOM
      1 C2           0.7870    -1.5090     0.6370 ca         1 0LY      -0.022900
      2 C7           2.0900    -1.0110     0.7060 ca         1 0LY      -0.078000
      3 C6           2.4590    -0.1120     1.7040 ca         1 0LY      -0.139000
      4 C5           1.5110     0.3030     2.6580 ca         1 0LY       0.017600
      5 N8           1.8100     1.2170     3.7010 ns         1 0LY      -0.393100
      6 C9           3.0310     1.7460     3.9690 c          1 0LY       0.614100
      7 O23          4.1090     1.5560     3.3800 o          1 0LY      -0.561100
      8 C10          3.0510     2.7190     5.1770 c          1 0LY       0.441100
      9 O22          2.0970     3.0720     5.8520 o          1 0LY      -0.401100
     10 N11          4.3970     3.2740     5.5120 ny         1 0LY      -0.672800
     11 C12          5.2050     2.3190     6.3840 c3         1 0LY       0.155500
     12 C17          6.6870     2.7000     6.3170 c3         1 0LY      -0.121900
     13 C16          7.4500     2.3460     7.6110 c3         1 0LY       0.204700
     14 C21          8.8920     2.8670     7.4220 c3         1 0LY      -0.109100
     15 C20          7.5510     0.8150     7.7270 c3         1 0LY      -0.109100
     16 N15          6.8600     3.0030     8.7790 n7         1 0LY      -0.825200
     17 C14          5.4100     3.1890     8.7960 c3         1 0LY       0.204700
     18 C19          4.8190     2.8930    10.1900 c3         1 0LY      -0.109100
     19 C18          5.0630     4.6550     8.4720 c3         1 0LY      -0.109100
     20 C13          4.6570     2.2720     7.8070 c3         1 0LY      -0.121900
     21 C4           0.1910    -0.2010     2.5870 ca         1 0LY      -0.139000
     22 C3          -0.1580    -1.0960     1.5840 ca         1 0LY      -0.078000
     23 Br           0.3060    -2.7130    -0.7050 br         1 0LY      -0.034100
     24 H1           2.8470    -1.3240    -0.0330 ha         1 0LY       0.167500
     25 H2           3.4970     0.2600     1.7250 ha         1 0LY       0.158500
     26 H3           1.0350     1.4840     4.2780 hn         1 0LY       0.353500
     27 H4           4.2980     4.1680     6.0150 hn         1 0LY       0.474300
     28 H5           5.0730     1.3010     5.9010 hx         1 0LY       0.105700
     29 H6           6.8210     3.8010     6.1350 hc         1 0LY       0.079700
     30 H7           7.1660     2.1520     5.4630 hc         1 0LY       0.079700
     31 H8           9.3300     2.4130     6.5020 hc         1 0LY       0.051117
     32 H9           8.9060     3.9780     7.3230 hc         1 0LY       0.051117
     33 H10          9.5210     2.5800     8.2980 hc         1 0LY       0.051117
     34 H11          6.5450     0.3370     7.7790 hc         1 0LY       0.051117
     35 H12          8.1260     0.5340     8.6430 hc         1 0LY       0.051117
     36 H13          8.0910     0.4060     6.8390 hc         1 0LY       0.051117
     37 H14          7.1790     2.5570     9.6180 hn         1 0LY       0.393800
     38 H16          3.7240     3.1060    10.1830 hc         1 0LY       0.051117
     39 H17          5.3000     3.5430    10.9610 hc         1 0LY       0.051117
     40 H18          4.9760     1.8250    10.4710 hc         1 0LY       0.051117
     41 H19          5.5400     4.9920     7.5210 hc         1 0LY       0.051117
     42 H20          5.4360     5.3200     9.2890 hc         1 0LY       0.051117
     43 H21          3.9560     4.7730     8.3970 hc         1 0LY       0.051117
     44 H22          4.7420     1.2080     8.1630 hc         1 0LY       0.079700
     45 H23          3.5650     2.5310     7.8410 hc         1 0LY       0.079700
     46 H24         -0.5750     0.1060     3.3170 ha         1 0LY       0.158500
     47 H25         -1.1920    -1.4790     1.5440 ha         1 0LY       0.167500
     48 H112         4.9160     3.4210     4.6350 hn         1 0LY       0.474300
@<TRIPOS>BOND
     1     1     2 ar  
     2     1    22 ar  
     3     1    23 1   
     4     2     3 ar  
     5     2    24 1   
     6     3     4 ar  
     7     3    25 1   
     8     4     5 1   
     9     4    21 ar  
    10     5     6 1   
    11     5    26 1   
    12     6     7 2   
    13     6     8 1   
    14     8     9 2   
    15     8    10 1   
    16    10    11 1   
    17    10    27 1   
    18    10    48 1   
    19    11    12 1   
    20    11    20 1   
    21    11    28 1   
    22    12    13 1   
    23    12    29 1   
    24    12    30 1   
    25    13    14 1   
    26    13    15 1   
    27    13    16 1   
    28    14    31 1   
    29    14    32 1   
    30    14    33 1   
    31    15    34 1   
    32    15    35 1   
    33    15    36 1   
    34    16    17 1   
    35    16    37 1   
    36    17    18 1   
    37    17    19 1   
    38    17    20 1   
    39    18    38 1   
    40    18    39 1   
    41    18    40 1   
    42    19    41 1   
    43    19    42 1   
    44    19    43 1   
    45    20    44 1   
    46    20    45 1   
    47    21    22 ar  
    48    21    46 1   
    49    22    47 1   
@<TRIPOS>SUBSTRUCTURE
     1 0LY         1 TEMP              0 ****  ****    0 ROOT
