@<TRIPOS>MOLECULE
molecule
   47    48     1     0     0
SMALL
bcc


@<TRIPOS>ATOM
      1 C2           0.0000     0.0000     0.0000 ca         1 0LY      -0.033900
      2 C7           1.3850     0.0000     0.0000 ca         1 0LY      -0.085500
      3 C6           2.0760     0.0000     1.1950 ca         1 0LY      -0.141000
      4 C5           1.3810     0.0010     2.3990 ca         1 0LY       0.063600
      5 N8           2.0780     0.0030     3.6100 ns         1 0LY      -0.451100
      6 C9           1.5690    -0.6380     4.6810 c          1 0LY       0.594100
      7 O23          0.5550    -1.2960     4.5690 o          1 0LY      -0.587100
      8 C10          2.2530    -0.5380     6.0050 c          1 0LY       0.594100
      9 O22          3.2680     0.1180     6.1170 o          1 0LY      -0.606100
     10 N11          1.7440    -1.1790     7.0770 ns         1 0LY      -0.550900
     11 C12          2.4170    -1.0820     8.3780 c3         1 0LY       0.111700
     12 C17          1.3970    -1.3240     9.4900 c3         1 0LY      -0.084400
     13 C16          2.0740    -1.2520    10.8570 c3         1 0LY       0.199700
     14 C21          1.0700    -1.7870    11.9020 c3         1 0LY      -0.104600
     15 C20          2.3590     0.2130    11.2110 c3         1 0LY      -0.104600
     16 N15          3.2780    -2.0520    10.9350 n7         1 0LY      -0.841200
     17 C14          4.2010    -2.0930     9.8210 c3         1 0LY       0.199700
     18 C19          5.1540    -0.8920     9.8460 c3         1 0LY      -0.104600
     19 C18          5.0660    -3.3660     9.9570 c3         1 0LY      -0.104600
     20 C13          3.4990    -2.1580     8.4670 c3         1 0LY      -0.084400
     21 C4          -0.0080     0.0020     2.3950 ca         1 0LY      -0.141000
     22 C3          -0.6950     0.0060     1.1970 ca         1 0LY      -0.085500
     23 Br          -0.9420    -0.0010    -1.6390 br         1 0LY      -0.095100
     24 H1           1.9260    -0.0030    -0.9380 ha         1 0LY       0.148000
     25 H2           3.1590     0.0000     1.1950 ha         1 0LY       0.151500
     26 H3           2.9310     0.5200     3.6950 hn         1 0LY       0.349500
     27 H4           0.9120    -1.7260     6.9830 hn         1 0LY       0.337500
     28 H5           2.8630    -0.1020     8.4950 h1         1 0LY       0.083700
     29 H6           0.9570    -2.3050     9.3620 hc         1 0LY       0.057200
     30 H7           0.6230    -0.5690     9.4350 hc         1 0LY       0.057200
     31 H8           0.1460    -1.2240    11.8360 hc         1 0LY       0.039533
     32 H9           0.8690    -2.8340    11.7070 hc         1 0LY       0.039533
     33 H10          1.4890    -1.6780    12.8940 hc         1 0LY       0.039533
     34 H11          2.9780     0.2560    12.0990 hc         1 0LY       0.039533
     35 H12          1.4240     0.7280    11.3970 hc         1 0LY       0.039533
     36 H13          2.8760     0.6890    10.3870 hc         1 0LY       0.039533
     37 H14          3.7760    -1.8250    11.7730 hn         1 0LY       0.371800
     38 H16          5.6170    -0.8180    10.8230 hc         1 0LY       0.039533
     39 H17          4.5970     0.0150     9.6410 hc         1 0LY       0.039533
     40 H18          5.9200    -1.0230     9.0920 hc         1 0LY       0.039533
     41 H19          5.7460    -3.4320     9.1160 hc         1 0LY       0.039533
     42 H20          4.4250    -4.2380     9.9720 hc         1 0LY       0.039533
     43 H21          5.6350    -3.3190    10.8780 hc         1 0LY       0.039533
     44 H22          4.2260    -1.9980     7.6800 hc         1 0LY       0.057200
     45 H23          3.0430    -3.1330     8.3470 hc         1 0LY       0.057200
     46 H24         -0.5530     0.0050     3.3320 ha         1 0LY       0.151500
     47 H25         -1.7780     0.0060     1.1940 ha         1 0LY       0.148000
@<TRIPOS>BOND
     1    18    17 1
     2    17    19 1
     3    17    16 1
     4    17    20 1
     5    16    13 1
     6    20    11 1
     7    13    15 1
     8    13    14 1
     9    13    12 1
    10    11    12 1
    11    11    10 1
    12     9     8 2
    13    10     8 1
    14     8     6 1
    15     6     5 1
    16     6     7 2
    17     5     4 1
    18    21     4 ar
    19    21    22 ar
    20     4     3 ar
    21    22     1 ar
    22     3     2 ar
    23     1     2 ar
    24     1    23 1
    25     2    24 1
    26     3    25 1
    27     5    26 1
    28    10    27 1
    29    11    28 1
    30    12    29 1
    31    12    30 1
    32    14    31 1
    33    14    32 1
    34    14    33 1
    35    15    34 1
    36    15    35 1
    37    15    36 1
    38    16    37 1
    39    18    38 1
    40    18    39 1
    41    18    40 1
    42    19    41 1
    43    19    42 1
    44    19    43 1
    45    20    44 1
    46    20    45 1
    47    21    46 1
    48    22    47 1
@<TRIPOS>SUBSTRUCTURE
     1 0LY         1 TEMP              0 ****  ****    0 ROOT
