@<TRIPOS>MOLECULE
molecule
   42    44     1     0     0
SMALL
bcc


@<TRIPOS>ATOM
      1 N01          0.0000     0.0000     0.0000 ns         1 0LZ      -0.553900
      2 C02          1.3480     0.0000     0.0000 c          1 0LZ       0.595100
      3 C03          2.0950     0.0000     1.2940 c          1 0LZ       0.595100
      4 N04          3.4430    -0.0010     1.2940 ns         1 0LZ      -0.451100
      5 C05          4.1420     0.1100     2.4990 ca         1 0LZ       0.081600
      6 O06          1.4880     0.0000     2.3450 o          1 0LZ      -0.587100
      7 O07          1.9550    -0.0000    -1.0510 o          1 0LZ      -0.600100
      8 C08          5.3610    -0.5370     2.6580 ca         1 0LZ      -0.166000
      9 C09          6.0500    -0.4270     3.8500 ca         1 0LZ      -0.080000
     10 C10          5.5280     0.3280     4.8860 ca         1 0LZ      -0.031600
     11 C11          4.3130     0.9760     4.7300 ca         1 0LZ       0.161900
     12 C12          3.6210     0.8730     3.5360 ca         1 0LZ      -0.165000
     13 Cl1          6.3980     0.4650     6.3820 cl         1 0LZ      -0.085400
     14 F14          3.8050     1.7120     5.7430 f          1 0LZ      -0.122900
     15 C15         -0.7330    -0.0060    -1.2690 c3         1 0LZ       0.119000
     16 C16         -2.2370    -0.0040    -0.9890 c3         1 0LZ       0.198800
     17 N17         -2.5680     1.1340    -0.1250 n7         1 0LZ      -0.810200
     18 C18         -4.0270     1.2550     0.0190 c3         1 0LZ       0.153800
     19 C19         -4.6050     1.7490    -1.3080 c3         1 0LZ      -0.033100
     20 C20         -4.0880     0.9000    -2.4420 ca         1 0LZ      -0.058300
     21 C21         -2.9850     0.0880    -2.2930 ca         1 0LZ      -0.077300
     22 C22         -4.7500     0.9490    -3.6590 ca         1 0LZ      -0.129000
     23 C23         -4.3080     0.1900    -4.7240 ca         1 0LZ      -0.121000
     24 C24         -3.2000    -0.6220    -4.5770 ca         1 0LZ      -0.128000
     25 C25         -2.5410    -0.6720    -3.3640 ca         1 0LZ      -0.125000
     26 H1          -0.5000    -0.0380     0.8660 hn         1 0LZ       0.331500
     27 H2           3.9430    -0.0720     0.4300 hn         1 0LZ       0.352500
     28 H3           5.7700    -1.1290     1.8480 ha         1 0LZ       0.144000
     29 H4           7.0000    -0.9320     3.9740 ha         1 0LZ       0.153000
     30 H5           2.6710     1.3790     3.4150 ha         1 0LZ       0.179000
     31 H7          -0.4710    -0.8940    -1.8320 h1         1 0LZ       0.068200
     32 H6          -0.4700     0.8750    -1.8410 h1         1 0LZ       0.068200
     33 H8          -2.5120    -0.9230    -0.4860 h1         1 0LZ       0.034700
     34 H9          -2.1540     1.0000     0.7760 hn         1 0LZ       0.353800
     35 H11         -4.4420     0.2800     0.2430 h1         1 0LZ       0.040700
     36 H12         -4.2460     1.9840     0.7900 h1         1 0LZ       0.040700
     37 H13         -5.6840     1.6590    -1.2710 hc         1 0LZ       0.061700
     38 H14         -4.2870     2.7720    -1.4670 hc         1 0LZ       0.061700
     39 H15         -5.6190     1.5860    -3.7750 ha         1 0LZ       0.132000
     40 H16         -4.8270     0.2320    -5.6740 ha         1 0LZ       0.131000
     41 H17         -2.8490    -1.2200    -5.4100 ha         1 0LZ       0.132000
     42 H18         -1.6730    -1.3090    -3.2490 ha         1 0LZ       0.132000
@<TRIPOS>BOND
     1    23    22 ar
     2    23    24 ar
     3    22    20 ar
     4    24    25 ar
     5    20    19 1
     6    20    21 ar
     7    19    18 1
     8    18    17 1
     9    25    21 ar
    10    21    16 1
    11    16    17 1
    12    16    15 1
    13    15     1 1
    14     1     2 1
    15     2     7 2
    16     2     3 1
    17     6     3 2
    18     3     4 1
    19     4     5 1
    20    12     5 ar
    21    12    11 ar
    22     5     8 ar
    23    14    11 1
    24    11    10 ar
    25     8     9 ar
    26    10     9 ar
    27    10    13 1
    28     1    26 1
    29     4    27 1
    30     8    28 1
    31     9    29 1
    32    12    30 1
    33    15    31 1
    34    15    32 1
    35    16    33 1
    36    17    34 1
    37    18    35 1
    38    18    36 1
    39    19    37 1
    40    19    38 1
    41    22    39 1
    42    23    40 1
    43    24    41 1
    44    25    42 1
@<TRIPOS>SUBSTRUCTURE
     1 0LZ         1 TEMP              0 ****  ****    0 ROOT
