@<TRIPOS>MOLECULE
0LZ
   43    45     1     0     0
SMALL
bcc


@<TRIPOS>ATOM
      1 N01         -0.0770    -0.7240    -0.3170 ny         1 0LZ      -0.646800
      2 C02          1.2670    -0.1060    -0.1220 c          1 0LZ       0.439100
      3 C03          1.8570    -0.3210     1.2970 c          1 0LZ       0.613100
      4 N04          3.1270     0.1400     1.4500 ns         1 0LZ      -0.397100
      5 C05          3.8940     0.0830     2.6420 ca         1 0LZ       0.039600
      6 O06          1.1290    -0.8810     2.1330 o          1 0LZ      -0.555100
      7 O07          1.7870     0.5030    -1.0440 o          1 0LZ      -0.396100
      8 C08          5.1770     0.6780     2.6240 ca         1 0LZ      -0.155000
      9 C09          5.9720     0.6460     3.7610 ca         1 0LZ      -0.076000
     10 C10          5.5290     0.0320     4.9380 ca         1 0LZ      -0.018600
     11 C11          4.2490    -0.5630     4.9590 ca         1 0LZ       0.163900
     12 C12          3.4320    -0.5370     3.8110 ca         1 0LZ      -0.172000
     13 Cl1          6.5340     0.0200     6.2950 cl         1 0LZ      -0.020400
     14 F14          3.7730    -1.1690     6.0680 f          1 0LZ      -0.104900
     15 C15         -0.7900    -0.2650    -1.5440 c3         1 0LZ       0.107800
     16 C16         -2.2720    -0.7610    -1.5440 c3         1 0LZ       0.221800
     17 N17         -2.2850    -2.2130    -1.4630 n7         1 0LZ      -0.867200
     18 C18         -3.1460    -2.8120    -0.4620 c3         1 0LZ       0.160800
     19 C19         -3.0910    -2.1140     0.8950 c3         1 0LZ      -0.050100
     20 C20         -3.3640    -0.6620     0.7380 ca         1 0LZ      -0.084300
     21 C21         -2.9980    -0.0190    -0.4540 ca         1 0LZ      -0.163300
     22 C22         -4.0190     0.0600     1.7420 ca         1 0LZ      -0.114000
     23 C23         -4.3160     1.4090     1.5550 ca         1 0LZ      -0.097000
     24 C24         -3.9710     2.0420     0.3600 ca         1 0LZ      -0.117000
     25 C25         -3.3150     1.3310    -0.6430 ca         1 0LZ      -0.119000
     26 H1           0.0370    -1.7500    -0.3530 hn         1 0LZ       0.487300
     27 H2           3.5700     0.5880     0.6700 hn         1 0LZ       0.355500
     28 H3           5.5640     1.1720     1.7180 ha         1 0LZ       0.151000
     29 H4           6.9720     1.1140     3.7350 ha         1 0LZ       0.172000
     30 H5           2.4400    -1.0140     3.8730 ha         1 0LZ       0.185000
     31 H7          -0.2360    -0.6580    -2.4400 hx         1 0LZ       0.108700
     32 H6          -0.7800     0.8610    -1.5640 hx         1 0LZ       0.108700
     33 H8          -2.6830    -0.4100    -2.5430 h1         1 0LZ       0.089700
     34 H9          -2.4790    -2.6090    -2.3640 hn         1 0LZ       0.397800
     35 H11         -2.8020    -3.8800    -0.3440 h1         1 0LZ       0.062200
     36 H12         -4.2240    -2.8350    -0.8000 h1         1 0LZ       0.062200
     37 H13         -2.0870    -2.2650     1.3760 hc         1 0LZ       0.066700
     38 H14         -3.8540    -2.5890     1.5690 hc         1 0LZ       0.066700
     39 H15         -4.3110    -0.4460     2.6760 ha         1 0LZ       0.154000
     40 H16         -4.8370     1.9710     2.3460 ha         1 0LZ       0.157000
     41 H17         -4.2250     3.1030     0.2040 ha         1 0LZ       0.155000
     42 H18         -3.0620     1.8300    -1.5920 ha         1 0LZ       0.139000
     43 H012        -0.6630    -0.5190     0.5130 hn         1 0LZ       0.487300
@<TRIPOS>BOND
     1     1     2 1   
     2     1    15 1   
     3     1    26 1   
     4     1    43 1   
     5     2     3 1   
     6     2     7 2   
     7     3     4 1   
     8     3     6 2   
     9     4     5 1   
    10     4    27 1   
    11     5     8 ar  
    12     5    12 ar  
    13     8     9 ar  
    14     8    28 1   
    15     9    10 ar  
    16     9    29 1   
    17    10    11 ar  
    18    10    13 1   
    19    11    12 ar  
    20    11    14 1   
    21    12    30 1   
    22    15    16 1   
    23    15    31 1   
    24    15    32 1   
    25    16    17 1   
    26    16    21 1   
    27    16    33 1   
    28    17    18 1   
    29    17    34 1   
    30    18    19 1   
    31    18    35 1   
    32    18    36 1   
    33    19    20 1   
    34    19    37 1   
    35    19    38 1   
    36    20    21 ar  
    37    20    22 ar  
    38    21    25 ar  
    39    22    23 ar  
    40    22    39 1   
    41    23    24 ar  
    42    23    40 1   
    43    24    25 ar  
    44    24    41 1   
    45    25    42 1   
@<TRIPOS>SUBSTRUCTURE
     1 0LZ         1 TEMP              0 ****  ****    0 ROOT
