@<TRIPOS>MOLECULE
0M1
   44    45     1     0     0
SMALL
bcc


@<TRIPOS>ATOM
      1 C01          0.0000     0.0000     0.0000 ca         1 0M1      -0.083600
      2 C02          1.3860     0.0000     0.0000 ca         1 0M1       0.134900
      3 C03          2.0770     0.0000     1.1980 ca         1 0M1      -0.127000
      4 C04          1.3810    -0.0000     2.3990 ca         1 0M1      -0.091400
      5 C05         -0.0080    -0.0000     2.3950 ca         1 0M1      -0.123000
      6 C06         -0.6940    -0.0000     1.1970 ca         1 0M1      -0.054000
      7 Cl1         -0.8670     0.0080    -1.5040 cl         1 0M1       0.024600
      8 F08          2.0610    -0.0000    -1.1700 f          1 0M1      -0.115900
      9 N09          2.0780    -0.0010     3.6110 ns         1 0M1       0.025900
     10 C10          3.2590     0.6400     3.7100 c          1 0M1       0.488100
     11 C11          4.0580     0.5420     4.9680 c          1 0M1       0.509100
     12 N12          5.2400     1.1830     5.0670 ns         1 0M1      -0.159900
     13 O13          3.6450    -0.1160     5.9000 o          1 0M1      -0.645100
     14 O14          3.6720     1.2980     2.7780 o          1 0M1      -0.631100
     15 C15          6.0250     1.0870     6.3000 c3         1 0M1       0.049000
     16 C16          7.3120     1.9010     6.1510 c3         1 0M1       0.144100
     17 C17          8.2060     1.7590     7.4080 c3         1 0M1       0.124100
     18 O18          9.5320     1.9980     6.8940 os         1 0M1      -0.440600
     19 C19          9.4920     1.7480     5.4830 c3         1 0M1       0.368600
     20 O20          8.1610     1.3420     5.1210 os         1 0M1      -0.375600
     21 C21          7.8350     2.8110     8.4560 c3         1 0M1      -0.056200
     22 N22          8.6990     2.6520     9.6340 nz         1 0M1       0.093400
     23 C23          9.8650     3.0230     4.7230 c3         1 0M1      -0.021600
     24 C24         10.4830     0.6350     5.1300 c3         1 0M1      -0.021600
     25 H1           3.1610    -0.0000     1.1990 ha         1 0M1       0.152000
     26 H2          -0.5530    -0.0000     3.3320 ha         1 0M1       0.114000
     27 H3          -1.7770    -0.0000     1.1940 ha         1 0M1       0.123000
     28 H4           1.7140    -0.5040     4.3960 hn         1 0M1       0.189500
     29 H5           5.5730     1.7380     4.3040 hn         1 0M1       0.209500
     30 H6           6.2730     0.0490     6.4900 h1         1 0M1       0.032200
     31 H7           5.4450     1.4760     7.1280 h1         1 0M1       0.032200
     32 H8           7.0970     2.9430     5.9480 h1         1 0M1       0.042700
     33 H9           8.1310     0.7590     7.8170 h1         1 0M1       0.056700
     34 H10          6.8000     2.6810     8.7460 hx         1 0M1       0.091700
     35 H11          7.9720     3.8010     8.0380 hx         1 0M1       0.091700
     36 H12          8.6760     1.6990     9.9380 hn         1 0M1       0.226800
     37 H13          8.3700     3.2460    10.3700 hn         1 0M1       0.226800
     38 H15         10.8940     3.2840     4.9390 hc         1 0M1       0.028200
     39 H16          9.7500     2.8570     3.6590 hc         1 0M1       0.028200
     40 H17          9.2150     3.8320     5.0350 hc         1 0M1       0.028200
     41 H18         11.4740     0.9150     5.4640 hc         1 0M1       0.028200
     42 H19         10.1830    -0.2840     5.6190 hc         1 0M1       0.028200
     43 H20         10.4920     0.4870     4.0570 hc         1 0M1       0.028200
     44 H223         9.6370     2.9060     9.3960 hn         1 0M1       0.226800
@<TRIPOS>BOND
     1     1     2 ar  
     2     1     6 ar  
     3     1     7 1   
     4     2     3 ar  
     5     2     8 1   
     6     3     4 ar  
     7     3    25 1   
     8     4     5 ar  
     9     4     9 1   
    10     5     6 ar  
    11     5    26 1   
    12     6    27 1   
    13     9    10 1   
    14     9    28 1   
    15    10    11 1   
    16    10    14 2   
    17    11    12 1   
    18    11    13 2   
    19    12    15 1   
    20    12    29 1   
    21    15    16 1   
    22    15    30 1   
    23    15    31 1   
    24    16    17 1   
    25    16    20 1   
    26    16    32 1   
    27    17    18 1   
    28    17    21 1   
    29    17    33 1   
    30    18    19 1   
    31    19    20 1   
    32    19    23 1   
    33    19    24 1   
    34    21    22 1   
    35    21    34 1   
    36    21    35 1   
    37    22    36 1   
    38    22    37 1   
    39    22    44 1   
    40    23    38 1   
    41    23    39 1   
    42    23    40 1   
    43    24    41 1   
    44    24    42 1   
    45    24    43 1   
@<TRIPOS>SUBSTRUCTURE
     1 0M1         1 TEMP              0 ****  ****    0 ROOT
