@<TRIPOS>MOLECULE
molecule
   44    45     1     0     0
SMALL
bcc


@<TRIPOS>ATOM
      1 C01          0.0000     0.0000     0.0000 ca         1 0M1      -0.023600
      2 C02          1.3860     0.0000     0.0000 ca         1 0M1       0.163900
      3 C03          2.0770     0.0000     1.1980 ca         1 0M1      -0.164000
      4 C04          1.3810    -0.0000     2.3990 ca         1 0M1       0.067600
      5 C05         -0.0080    -0.0000     2.3950 ca         1 0M1      -0.159000
      6 C06         -0.6940    -0.0000     1.1970 ca         1 0M1      -0.078000
      7 Cl1         -0.8670     0.0080    -1.5040 cl         1 0M1      -0.070400
      8 F08          2.0610    -0.0000    -1.1700 f          1 0M1      -0.117900
      9 N09          2.0780    -0.0010     3.6110 ns         1 0M1      -0.442100
     10 C10          3.2590     0.6400     3.7100 c          1 0M1       0.597100
     11 C11          4.0580     0.5420     4.9680 c          1 0M1       0.600100
     12 N12          5.2400     1.1830     5.0670 ns         1 0M1      -0.560900
     13 O13          3.6450    -0.1160     5.9000 o          1 0M1      -0.596100
     14 O14          3.6720     1.2980     2.7780 o          1 0M1      -0.577100
     15 C15          6.0250     1.0870     6.3000 c3         1 0M1       0.122000
     16 C16          7.3120     1.9010     6.1510 c3         1 0M1       0.102100
     17 C17          8.2060     1.7590     7.4080 c3         1 0M1       0.073100
     18 O18          9.5320     1.9980     6.8940 os         1 0M1      -0.444600
     19 C19          9.4920     1.7480     5.4830 c3         1 0M1       0.323600
     20 O20          8.1610     1.3420     5.1210 os         1 0M1      -0.378600
     21 C21          7.8350     2.8110     8.4560 c3         1 0M1       0.096800
     22 N22          8.6990     2.6520     9.6340 nz         1 0M1      -0.805600
     23 C23          9.8650     3.0230     4.7230 c3         1 0M1      -0.105100
     24 C24         10.4830     0.6350     5.1300 c3         1 0M1      -0.105100
     25 H1           3.1610    -0.0000     1.1990 ha         1 0M1       0.174000
     26 H2          -0.5530    -0.0000     3.3320 ha         1 0M1       0.144000
     27 H3          -1.7770    -0.0000     1.1940 ha         1 0M1       0.159000
     28 H4           1.7140    -0.5040     4.3960 hn         1 0M1       0.351500
     29 H5           5.5730     1.7380     4.3040 hn         1 0M1       0.352500
     30 H6           6.2730     0.0490     6.4900 h1         1 0M1       0.063700
     31 H7           5.4450     1.4760     7.1280 h1         1 0M1       0.063700
     32 H8           7.0970     2.9430     5.9480 h1         1 0M1       0.074700
     33 H9           8.1310     0.7590     7.8170 h1         1 0M1       0.087700
     34 H10          6.8000     2.6810     8.7460 hx         1 0M1       0.119700
     35 H11          7.9720     3.8010     8.0380 hx         1 0M1       0.119700
     36 H12          8.6760     1.6990     9.9380 hn         1 0M1       0.462133
     37 H13          8.3700     3.2460    10.3700 hn         1 0M1       0.462133
     38 H15         10.8940     3.2840     4.9390 hc         1 0M1       0.063700
     39 H16          9.7500     2.8570     3.6590 hc         1 0M1       0.063700
     40 H17          9.2150     3.8320     5.0350 hc         1 0M1       0.063700
     41 H18         11.4740     0.9150     5.4640 hc         1 0M1       0.063700
     42 H19         10.1830    -0.2840     5.6190 hc         1 0M1       0.063700
     43 H20         10.4920     0.4870     4.0570 hc         1 0M1       0.063700
     44 H223         9.6370     2.9060     9.3960 hn         1 0M1       0.462133
@<TRIPOS>BOND
     1    24    19 1
     2    18    19 1
     3    18    17 1
     4    22    21 1
     5    23    19 1
     6    19    20 1
     7    17    21 1
     8    17    16 1
     9    20    16 1
    10    16    15 1
    11    15    12 1
    12    12    11 1
    13    11    13 2
    14    11    10 1
    15    14    10 2
    16    10     9 1
    17     9     4 1
    18     3     4 ar
    19     3     2 ar
    20     4     5 ar
    21     8     2 1
    22     2     1 ar
    23     5     6 ar
    24     1     6 ar
    25     1     7 1
    26     3    25 1
    27     5    26 1
    28     6    27 1
    29     9    28 1
    30    12    29 1
    31    15    30 1
    32    15    31 1
    33    16    32 1
    34    17    33 1
    35    21    34 1
    36    21    35 1
    37    22    36 1
    38    22    37 1
    39    23    38 1
    40    23    39 1
    41    23    40 1
    42    24    41 1
    43    24    42 1
    44    24    43 1
    45    44    22 1
@<TRIPOS>SUBSTRUCTURE
     1 0M1         1 TEMP              0 ****  ****    0 ROOT
