@<TRIPOS>MOLECULE
0M1
   45    46     1     0     0
SMALL
bcc


@<TRIPOS>ATOM
      1 C01          1.1740    -1.5270     1.1900 ca         1 0M1      -0.006600
      2 C02          2.4250    -0.8740     1.1150 ca         1 0M1       0.160900
      3 C03          2.9850    -0.2720     2.2600 ca         1 0M1      -0.171000
      4 C04          2.2970    -0.3250     3.4800 ca         1 0M1       0.018600
      5 C05          1.0450    -0.9790     3.5550 ca         1 0M1      -0.144000
      6 C06          0.5040    -1.5650     2.4190 ca         1 0M1      -0.074000
      7 Cl1          0.4740    -2.2540    -0.1590 cl         1 0M1       0.002600
      8 F08          3.1170    -0.8070    -0.0420 f          1 0M1      -0.102900
      9 N09          2.8050     0.2620     4.6720 ns         1 0M1      -0.372100
     10 C10          3.9710     0.9390     4.7840 c          1 0M1       0.631100
     11 C11          4.2530     1.4940     6.2070 c          1 0M1       0.452100
     12 N12          5.3240     2.5670     6.2390 ny         1 0M1      -0.665800
     13 O13          3.7380     1.1770     7.2620 o          1 0M1      -0.373100
     14 O14          4.8390     1.1770     3.9220 o          1 0M1      -0.589100
     15 C15          6.6300     2.0820     6.7700 c3         1 0M1       0.089800
     16 C16          7.1800     0.8630     6.0060 c3         1 0M1       0.106100
     17 C17          8.6340     0.5430     6.4040 c3         1 0M1       0.111100
     18 O18          8.5700    -0.7070     7.0790 os         1 0M1      -0.462600
     19 C19          7.2050    -1.1530     7.2560 c3         1 0M1       0.364600
     20 O20          6.4400    -0.2910     6.3870 os         1 0M1      -0.442600
     21 C21          9.5340     0.3670     5.1640 c3         1 0M1       0.086800
     22 N22         10.8160    -0.3130     5.4940 nz         1 0M1      -0.830600
     23 C23          7.0750    -2.5830     6.7640 c3         1 0M1      -0.121600
     24 C24          6.7910    -0.9790     8.7060 c3         1 0M1      -0.121600
     25 H1           3.9590     0.2320     2.1520 ha         1 0M1       0.177000
     26 H2           0.4820    -1.0320     4.5010 ha         1 0M1       0.156000
     27 H3          -0.4770    -2.0700     2.4880 ha         1 0M1       0.182000
     28 H4           2.2360     0.1400     5.4890 hn         1 0M1       0.360500
     29 H5           5.4530     2.9050     5.2710 hn         1 0M1       0.479800
     30 H6           7.3620     2.9370     6.7040 hx         1 0M1       0.122700
     31 H7           6.4760     1.7990     7.8540 hx         1 0M1       0.122700
     32 H8           7.0360     0.9750     4.8930 h1         1 0M1       0.126700
     33 H9           9.0720     1.2970     7.1130 h1         1 0M1       0.098700
     34 H10          9.7650     1.3760     4.7160 hx         1 0M1       0.125200
     35 H11          9.0000    -0.2680     4.3960 hx         1 0M1       0.125200
     36 H12         11.3350    -0.5260     4.6340 hn         1 0M1       0.477467
     37 H13         11.3960     0.2790     6.0990 hn         1 0M1       0.477467
     38 H15          7.7910    -3.2310     7.3250 hc         1 0M1       0.077533
     39 H16          7.2900    -2.6470     5.6720 hc         1 0M1       0.077533
     40 H17          6.0330    -2.9410     6.9500 hc         1 0M1       0.077533
     41 H18          7.3410    -1.7190     9.3380 hc         1 0M1       0.077533
     42 H19          5.6940    -1.1630     8.8040 hc         1 0M1       0.077533
     43 H20          7.0280     0.0480     9.0710 hc         1 0M1       0.077533
     44 H223        10.6150    -1.1920     5.9980 hn         1 0M1       0.477467
     45 H122         5.0020     3.3470     6.8290 hn         1 0M1       0.479800
@<TRIPOS>BOND
     1     1     2 ar  
     2     1     6 ar  
     3     1     7 1   
     4     2     3 ar  
     5     2     8 1   
     6     3     4 ar  
     7     3    25 1   
     8     4     5 ar  
     9     4     9 1   
    10     5     6 ar  
    11     5    26 1   
    12     6    27 1   
    13     9    10 1   
    14     9    28 1   
    15    10    11 1   
    16    10    14 2   
    17    11    12 1   
    18    11    13 2   
    19    12    15 1   
    20    12    29 1   
    21    12    45 1   
    22    15    16 1   
    23    15    30 1   
    24    15    31 1   
    25    16    17 1   
    26    16    20 1   
    27    16    32 1   
    28    17    18 1   
    29    17    21 1   
    30    17    33 1   
    31    18    19 1   
    32    19    20 1   
    33    19    23 1   
    34    19    24 1   
    35    21    22 1   
    36    21    34 1   
    37    21    35 1   
    38    22    36 1   
    39    22    37 1   
    40    22    44 1   
    41    23    38 1   
    42    23    39 1   
    43    23    40 1   
    44    24    41 1   
    45    24    42 1   
    46    24    43 1   
@<TRIPOS>SUBSTRUCTURE
     1 0M1         1 TEMP              0 ****  ****    0 ROOT
