@<TRIPOS>MOLECULE
0M2
   42    45     1     0     0
SMALL
bcc


@<TRIPOS>ATOM
      1 C1          -0.0850     0.4870     0.1430 cc         1 0M2      -0.082300
      2 C2           1.2630     0.6340     0.2080 cd         1 0M2      -0.082300
      3 C3          -0.9940     0.0100     1.1560 ca         1 0M2      -0.029500
      4 C4          -0.5750     0.9250    -1.2270 c3         1 0M2       0.190100
      5 C5           2.1540     0.3550     1.3080 ca         1 0M2      -0.029500
      6 C6           1.7770     1.1810    -1.1130 c3         1 0M2       0.190100
      7 C7          -0.5750    -0.9230     2.1400 ca         1 0M2       0.009800
      8 C8          -2.3200     0.4670     1.1710 ca         1 0M2      -0.101500
      9 N9           0.6130     1.3150    -2.0110 n3         1 0M2      -0.710600
     10 C10          1.8540    -0.6570     2.2580 ca         1 0M2       0.009800
     11 C11          3.3410     1.0880     1.4450 ca         1 0M2      -0.101500
     12 N12          0.7220    -1.5010     2.1070 na         1 0M2      -0.183300
     13 C13         -1.5080    -1.3580     3.1080 ca         1 0M2      -0.178000
     14 C14         -3.2270     0.0240     2.1280 ca         1 0M2      -0.148500
     15 C15          0.7640     0.5790    -3.2530 c3         1 0M2       0.124800
     16 C16          2.7630    -0.8890     3.3150 ca         1 0M2      -0.178000
     17 C17          4.2270     0.8420     2.4890 ca         1 0M2      -0.148500
     18 C18         -2.8180    -0.8930     3.0950 ca         1 0M2      -0.103000
     19 C19         -0.2950     0.9540    -4.3110 c3         1 0M2       0.138100
     20 C20          3.9360    -0.1520     3.4220 ca         1 0M2      -0.103000
     21 C21         -0.0500     2.3350    -4.8820 c3         1 0M2      -0.123100
     22 O22         -0.2960    -0.0350    -5.3290 oh         1 0M2      -0.598800
     23 H1          -1.1700     0.1020    -1.7090 h1         1 0M2       0.059450
     24 H2          -1.2280     1.8360    -1.1390 h1         1 0M2       0.059450
     25 H3           2.2050     2.2120    -0.9750 h1         1 0M2       0.059450
     26 H4           2.5800     0.5120    -1.5250 h1         1 0M2       0.059450
     27 H5          -2.6450     1.1920     0.4090 ha         1 0M2       0.136000
     28 H7           3.5720     1.8750     0.7110 ha         1 0M2       0.136000
     29 H8           0.7790    -2.2910     2.7260 hn         1 0M2       0.237700
     30 H9          -1.2060    -2.0820     3.8810 ha         1 0M2       0.131000
     31 H10         -4.2610     0.3950     2.1200 ha         1 0M2       0.135000
     32 H11          1.7810     0.8200    -3.6750 h1         1 0M2       0.041700
     33 H12          0.7150    -0.5400    -3.1050 h1         1 0M2       0.041700
     34 H13          2.5520    -1.6690     4.0630 ha         1 0M2       0.131000
     35 H14          5.1520     1.4290     2.5760 ha         1 0M2       0.135000
     36 H15         -3.5310    -1.2500     3.8530 ha         1 0M2       0.134000
     37 H16         -1.3330     0.8870    -3.8740 h1         1 0M2       0.076700
     38 H17          4.6340    -0.3540     4.2480 ha         1 0M2       0.134000
     39 H18          0.9680     2.3990    -5.3360 hc         1 0M2       0.045367
     40 H19         -0.1300     3.1020    -4.0750 hc         1 0M2       0.045367
     41 H20         -0.8040     2.5580    -5.6750 hc         1 0M2       0.045367
     42 H21          0.5500     0.0230    -5.7880 ho         1 0M2       0.396000
@<TRIPOS>BOND
     1     1     2 2   
     2     1     3 1   
     3     1     4 1   
     4     2     5 1   
     5     2     6 1   
     6     3     7 ar  
     7     3     8 ar  
     8     4     9 1   
     9     4    23 1   
    10     4    24 1   
    11     5    10 ar  
    12     5    11 ar  
    13     6     9 1   
    14     6    25 1   
    15     6    26 1   
    16     7    12 1   
    17     7    13 ar  
    18     8    14 ar  
    19     8    27 1   
    20     9    15 1   
    21    10    12 1   
    22    10    16 ar  
    23    11    17 ar  
    24    11    28 1   
    25    12    29 1   
    26    13    18 ar  
    27    13    30 1   
    28    14    18 ar  
    29    14    31 1   
    30    15    19 1   
    31    15    32 1   
    32    15    33 1   
    33    16    20 ar  
    34    16    34 1   
    35    17    20 ar  
    36    17    35 1   
    37    18    36 1   
    38    19    21 1   
    39    19    22 1   
    40    19    37 1   
    41    20    38 1   
    42    21    39 1   
    43    21    40 1   
    44    21    41 1   
    45    22    42 1   
@<TRIPOS>SUBSTRUCTURE
     1 0M2         1 TEMP              0 ****  ****    0 ROOT
