@<TRIPOS>MOLECULE
molecule
   42    45     1     0     0
SMALL
bcc


@<TRIPOS>ATOM
      1 C1           0.0000     0.0000     0.0000 cc         1 0M2      -0.105800
      2 C2           1.3390     0.0000     0.0000 cd         1 0M2      -0.105800
      3 C3          -0.8890    -0.0050     1.1800 ca         1 0M2      -0.031500
      4 C4          -0.4890     0.0000    -1.4350 c3         1 0M2       0.180600
      5 C5           2.2280     0.0000     1.1800 ca         1 0M2      -0.031500
      6 C6           1.8300    -0.0000    -1.4350 c3         1 0M2       0.180600
      7 C7          -0.5480     0.7010     2.3370 ca         1 0M2       0.014800
      8 C8          -2.0850    -0.7220     1.1330 ca         1 0M2      -0.097500
      9 N9           0.6720    -0.4240    -2.2500 n3         1 0M2      -0.690600
     10 C10          1.8840     0.7060     2.3370 ca         1 0M2       0.014800
     11 C11          3.4340    -0.7010     1.1290 ca         1 0M2      -0.097500
     12 N12          0.6630     1.3950     2.4210 na         1 0M2      -0.185300
     13 C13         -1.4090     0.6970     3.4230 ca         1 0M2      -0.178500
     14 C14         -2.9300    -0.7230     2.2260 ca         1 0M2      -0.150000
     15 C15          0.6670    -1.8800    -2.4410 c3         1 0M2       0.148800
     16 C16          2.7520     0.7170     3.4180 ca         1 0M2      -0.178500
     17 C17          4.2860    -0.6840     2.2170 ca         1 0M2      -0.150000
     18 C18         -2.5960    -0.0150     3.3660 ca         1 0M2      -0.103500
     19 C19         -0.3880    -2.2550    -3.4830 c3         1 0M2       0.147100
     20 C20          3.9480     0.0240     3.3560 ca         1 0M2      -0.103500
     21 C21         -0.3920    -3.7720    -3.6820 c3         1 0M2      -0.124100
     22 O22         -1.6750    -1.8300    -3.0320 oh         1 0M2      -0.611800
     23 H1          -0.7820     1.0040    -1.7170 h1         1 0M2       0.074700
     24 H2          -1.2910    -0.7200    -1.5440 h1         1 0M2       0.074700
     25 H3           2.1230     1.0040    -1.7170 h1         1 0M2       0.074700
     26 H4           2.6320    -0.7200    -1.5430 h1         1 0M2       0.074700
     27 H5          -2.3500    -1.2780     0.2420 ha         1 0M2       0.139000
     28 H7           3.7020    -1.2570     0.2390 ha         1 0M2       0.139000
     29 H8           0.6610     1.9720     3.2380 hn         1 0M2       0.230700
     30 H9          -1.1530     1.2500     4.3190 ha         1 0M2       0.129500
     31 H10         -3.8600    -1.2770     2.1890 ha         1 0M2       0.131000
     32 H11          0.4350    -2.3670    -1.5010 h1         1 0M2       0.046700
     33 H12          1.6430    -2.2030    -2.7830 h1         1 0M2       0.046700
     34 H13          2.4940     1.2700     4.3130 ha         1 0M2       0.129500
     35 H14          5.2240    -1.2250     2.1760 ha         1 0M2       0.131000
     36 H15         -3.2630    -0.0200     4.2190 ha         1 0M2       0.130500
     37 H16         -0.1550    -1.7690    -4.4230 h1         1 0M2       0.043700
     38 H17          4.6210     0.0330     4.2050 ha         1 0M2       0.130500
     39 H18          0.6110    -4.1090    -3.9150 hc         1 0M2       0.042033
     40 H19         -0.7320    -4.2540    -2.7730 hc         1 0M2       0.042033
     41 H20         -1.0580    -4.0280    -4.4970 hc         1 0M2       0.042033
     42 H21         -2.2450    -1.7110    -3.7740 ho         1 0M2       0.403000
@<TRIPOS>BOND
     1     6     2 1   
     2     6     9 1   
     3     5    11 ar  
     4     5    10 ar  
     5     5     2 1   
     6    12    10 1   
     7    12     7 1   
     8    20    16 ar  
     9    20    17 ar  
    10    16    10 ar  
    11    11    17 ar  
    12    15     9 1   
    13    15    19 1   
    14     2     1 2   
    15     9     4 1   
    16    22    19 1   
    17     1     4 1   
    18     1     3 1   
    19     7     3 ar  
    20     7    13 ar  
    21    19    21 1   
    22     3     8 ar  
    23    13    18 ar  
    24     8    14 ar  
    25    18    14 ar  
    26     4    23 1   
    27     4    24 1   
    28     6    25 1   
    29     6    26 1   
    30     8    27 1   
    31    11    28 1   
    32    12    29 1   
    33    13    30 1   
    34    14    31 1   
    35    15    32 1   
    36    15    33 1   
    37    16    34 1   
    38    17    35 1   
    39    18    36 1   
    40    19    37 1   
    41    20    38 1   
    42    21    39 1   
    43    21    40 1   
    44    21    41 1   
    45    22    42 1   
@<TRIPOS>SUBSTRUCTURE
     1 0M2         1 TEMP              0 ****  ****    0 ROOT
