@<TRIPOS>MOLECULE
molecule
   65    68     1     0     0
SMALL
bcc


@<TRIPOS>ATOM
      1 C1           0.0000     0.0000     0.0000 c3         1 0M3      -0.057800
      2 C2           1.5080     0.0000     0.0000 ca         1 0M3      -0.026300
      3 C3           2.1990     0.0000     1.1970 ca         1 0M3      -0.152000
      4 C4           3.5810     0.0000     1.1970 ca         1 0M3      -0.024500
      5 C5           4.2720     0.0000     0.0000 ca         1 0M3      -0.321500
      6 C6           3.5810    -0.0010    -1.1970 ca         1 0M3      -0.024500
      7 C7           2.1980    -0.0070    -1.1970 ca         1 0M3      -0.152000
      8 S8           6.0330     0.0020    -0.0000 sy         1 0M3       1.422200
      9 O9           6.4350     0.5450    -1.2500 o          1 0M3      -0.636800
     10 O10          6.4350     0.5470     1.2500 o          1 0M3      -0.636800
     11 N11          6.5250    -1.5800     0.0010 n7         1 0M3      -0.906100
     12 C12          6.2310    -2.4400    -1.1480 c3         1 0M3       0.206500
     13 C13          7.4300    -2.4490    -2.0990 c3         1 0M3       0.133800
     14 N14          7.1420    -3.3270    -3.2410 n7         1 0M3      -0.799200
     15 C15          6.9250    -4.7120    -2.8040 c3         1 0M3       0.158800
     16 C16          5.7110    -4.7700    -1.8740 c3         1 0M3      -0.189700
     17 C17          5.9590    -3.8660    -0.6630 c3         1 0M3      -0.070400
     18 C18          5.5010    -6.1880    -1.4090 c          1 0M3       0.664100
     19 O19          5.5410    -6.4500    -0.2260 o          1 0M3      -0.606100
     20 N20          5.2680    -7.1650    -2.3090 ns         1 0M3      -0.584900
     21 C21          5.0640    -8.5430    -1.8570 c3         1 0M3       0.120000
     22 C22          4.8210    -9.4460    -3.0680 c3         1 0M3       0.005900
     23 C23          4.7320   -10.8800    -2.6150 ca         1 0M3      -0.080300
     24 C24          5.5220   -11.8450    -3.2140 ca         1 0M3      -0.121500
     25 C25          5.4410   -13.1610    -2.7990 ca         1 0M3      -0.124250
     26 C26          4.5720   -13.5130    -1.7830 ca         1 0M3      -0.126000
     27 C27          3.7830   -12.5480    -1.1840 ca         1 0M3      -0.124250
     28 C28          3.8670   -11.2310    -1.5960 ca         1 0M3      -0.121500
     29 C29          3.5310    -9.0500    -3.7380 ca         1 0M3      -0.080300
     30 C30          2.3700    -8.9440    -2.9960 ca         1 0M3      -0.121500
     31 C31          1.1860    -8.5820    -3.6110 ca         1 0M3      -0.124250
     32 C32          1.1630    -8.3260    -4.9690 ca         1 0M3      -0.126000
     33 C33          2.3240    -8.4310    -5.7120 ca         1 0M3      -0.124250
     34 C34          3.5090    -8.7900    -5.0960 ca         1 0M3      -0.121500
     35 H1          -0.3610    -0.7300     0.7150 hc         1 0M3       0.049700
     36 H2          -0.3610    -0.2540    -0.9890 hc         1 0M3       0.049700
     37 H3          -0.3610     0.9840     0.2740 hc         1 0M3       0.049700
     38 H4           1.6570    -0.0000     2.1350 ha         1 0M3       0.137500
     39 H5           4.1230     0.0000     2.1350 ha         1 0M3       0.149500
     40 H6           4.1220    -0.0030    -2.1350 ha         1 0M3       0.149500
     41 H7           1.6560    -0.0080    -2.1350 ha         1 0M3       0.137500
     42 H8           7.0440    -1.9420     0.7770 hn         1 0M3       0.459800
     43 H9           5.3600    -2.0650    -1.6720 h1         1 0M3       0.053700
     44 H10          7.6140    -1.4430    -2.4560 h1         1 0M3       0.074700
     45 H11          8.3030    -2.8170    -1.5740 h1         1 0M3       0.074700
     46 H12          6.3280    -2.9960    -3.7200 hn         1 0M3       0.352800
     47 H14          6.7440    -5.3380    -3.6700 h1         1 0M3       0.061200
     48 H15          7.8010    -5.0640    -2.2740 h1         1 0M3       0.061200
     49 H16          4.8330    -4.4250    -2.4060 hc         1 0M3       0.066700
     50 H17          5.0830    -3.8690    -0.0250 hc         1 0M3       0.067700
     51 H18          6.8170    -4.2290    -0.1110 hc         1 0M3       0.067700
     52 H19          5.2550    -6.9520    -3.2860 hn         1 0M3       0.316500
     53 H20          4.2050    -8.5840    -1.1980 h1         1 0M3       0.059700
     54 H21          5.9440    -8.8820    -1.3240 h1         1 0M3       0.059700
     55 H22          5.6400    -9.3380    -3.7680 hc         1 0M3       0.063700
     56 H23          6.2040   -11.5690    -4.0100 ha         1 0M3       0.131750
     57 H24          6.0600   -13.9160    -3.2680 ha         1 0M3       0.131500
     58 H25          4.5070   -14.5440    -1.4590 ha         1 0M3       0.131000
     59 H26          3.1030   -12.8240    -0.3860 ha         1 0M3       0.131500
     60 H27          3.2490   -10.4760    -1.1270 ha         1 0M3       0.131750
     61 H28          2.3880    -9.1440    -1.9310 ha         1 0M3       0.131750
     62 H29          0.2760    -8.4980    -3.0290 ha         1 0M3       0.131500
     63 H30          0.2360    -8.0440    -5.4520 ha         1 0M3       0.131000
     64 H31          2.3070    -8.2290    -6.7770 ha         1 0M3       0.131500
     65 H32          4.4190    -8.8720    -5.6780 ha         1 0M3       0.131750
@<TRIPOS>BOND
     1     9     8 2
     2    10     8 2
     3     8    11 1
     4     8     5 1
     5    14    13 1
     6    14    15 1
     7    12    13 1
     8    12    11 1
     9    12    17 1
    10     6     5 ar
    11     6     7 ar
    12    15    16 1
    13     5     4 ar
    14    16    17 1
    15    16    18 1
    16     7     2 ar
    17    20    18 1
    18    20    21 1
    19    18    19 2
    20     4     3 ar
    21    21    22 1
    22     2     3 ar
    23     2     1 1
    24    24    25 ar
    25    24    23 ar
    26    22    23 1
    27    22    29 1
    28    25    26 ar
    29    23    28 ar
    30    30    29 ar
    31    30    31 ar
    32    29    34 ar
    33    26    27 ar
    34    31    32 ar
    35    28    27 ar
    36    34    33 ar
    37    32    33 ar
    38     1    35 1
    39     1    36 1
    40     1    37 1
    41     3    38 1
    42     4    39 1
    43     6    40 1
    44     7    41 1
    45    11    42 1
    46    12    43 1
    47    13    44 1
    48    13    45 1
    49    14    46 1
    50    15    47 1
    51    15    48 1
    52    16    49 1
    53    17    50 1
    54    17    51 1
    55    20    52 1
    56    21    53 1
    57    21    54 1
    58    22    55 1
    59    24    56 1
    60    25    57 1
    61    26    58 1
    62    27    59 1
    63    28    60 1
    64    30    61 1
    65    31    62 1
    66    32    63 1
    67    33    64 1
    68    34    65 1
@<TRIPOS>SUBSTRUCTURE
     1 0M3         1 TEMP              0 ****  ****    0 ROOT
