@<TRIPOS>MOLECULE
molecule
   67    70     1     0     0
SMALL
bcc


@<TRIPOS>ATOM
      1 C1           0.0000     0.0000     0.0000 c3         1 0M3      -0.108800
      2 C2           1.5290     0.0000     0.0000 ca         1 0M3       0.117700
      3 C3           2.2340     0.0000     1.2200 ca         1 0M3      -0.164500
      4 C4           3.6500    -0.0100     1.2080 ca         1 0M3       0.035500
      5 C5           4.3330    -0.0440    -0.0330 ca         1 0M3      -0.628500
      6 C6           3.6450     0.0470    -1.2340 ca         1 0M3       0.035500
      7 C7           2.2490     0.0830    -1.2060 ca         1 0M3      -0.164500
      8 S8           6.0980     0.0120    -0.1840 sy         1 0M3       1.557200
      9 O9           6.4450    -0.0800    -1.6060 o          1 0M3      -0.552300
     10 O10          6.5720     1.1590     0.5820 o          1 0M3      -0.552300
     11 N11          6.5150    -1.3520     0.6250 ny         1 0M3      -0.658900
     12 C12          7.1150    -2.5160    -0.0150 c3         1 0M3       0.134500
     13 C13          8.2740    -3.0630     0.8590 c3         1 0M3       0.149800
     14 N14          8.8030    -4.2880     0.2210 n7         1 0M3      -0.824200
     15 C15          7.8120    -5.3830     0.0700 c3         1 0M3       0.168800
     16 C16          6.6250    -4.9170    -0.8340 c3         1 0M3      -0.133700
     17 C17          6.0230    -3.5990    -0.2560 c3         1 0M3      -0.104400
     18 C18          5.6300    -6.0550    -0.9810 c          1 0M3       0.540100
     19 O19          4.5270    -5.9620    -0.4640 o          1 0M3      -0.400100
     20 N20          6.0230    -7.1460    -1.6940 ny         1 0M3      -0.679800
     21 C21          5.1910    -8.3410    -1.8940 c3         1 0M3       0.108800
     22 C22          5.7620    -9.5230    -1.0530 c3         1 0M3       0.035900
     23 C23          6.1840    -9.1270     0.3670 ca         1 0M3      -0.138800
     24 C24          7.5660    -9.1210     0.6870 ca         1 0M3      -0.128750
     25 C25          8.0050    -8.6910     1.9470 ca         1 0M3      -0.113000
     26 C26          7.0500    -8.2230     2.8700 ca         1 0M3      -0.097500
     27 C27          5.6630    -8.2440     2.5680 ca         1 0M3      -0.113000
     28 C28          5.2330    -8.6670     1.3040 ca         1 0M3      -0.128750
     29 C29          5.0330   -10.8720    -1.1660 ca         1 0M3      -0.138800
     30 C30          5.3840   -11.7910    -2.1810 ca         1 0M3      -0.128750
     31 C31          4.7090   -13.0230    -2.2980 ca         1 0M3      -0.113000
     32 C32          3.6750   -13.3490    -1.3980 ca         1 0M3      -0.097500
     33 C33          3.3290   -12.4530    -0.3710 ca         1 0M3      -0.113000
     34 C34          3.9960   -11.2110    -0.2700 ca         1 0M3      -0.128750
     35 H1          -0.3610     1.0030     0.1940 hc         1 0M3       0.093367
     36 H2          -0.3610    -0.6700     0.7710 hc         1 0M3       0.093367
     37 H3          -0.3610    -0.3330    -0.9660 hc         1 0M3       0.093367
     38 H4           1.7000    -0.1170     2.1550 ha         1 0M3       0.185500
     39 H5           4.1990    -0.1380     2.1330 ha         1 0M3       0.170500
     40 H6           4.1640    -0.1190    -2.1700 ha         1 0M3       0.170500
     41 H7           1.7060     0.1770    -2.1380 ha         1 0M3       0.185500
     42 H8           7.1490    -1.0690     1.3460 hn         1 0M3       0.398800
     43 H9           7.5200    -2.2180    -0.9750 hx         1 0M3       0.102700
     44 H10          9.0590    -2.3200     0.9270 h1         1 0M3       0.068200
     45 H11          7.9020    -3.3000     1.8480 h1         1 0M3       0.068200
     46 H12          9.5910    -4.6210     0.7390 hn         1 0M3       0.419800
     47 H14          8.2940    -6.2390    -0.3860 h1         1 0M3       0.051700
     48 H15          7.4320    -5.6570     1.0460 h1         1 0M3       0.051700
     49 H16          7.0250    -4.6930    -1.8150 hc         1 0M3       0.113700
     50 H17          5.2920    -3.2100    -0.9550 hc         1 0M3       0.077700
     51 H18          5.5340    -3.8190     0.6860 hc         1 0M3       0.077700
     52 H19          6.8650    -7.4690    -1.2590 hn         1 0M3       0.470300
     53 H20          5.1940    -8.6110    -2.9430 hx         1 0M3       0.107700
     54 H21          4.1770    -8.1310    -1.5780 hx         1 0M3       0.107700
     55 H22          6.7090    -9.7250    -1.5380 hc         1 0M3       0.071700
     56 H23          8.2880    -9.4590    -0.0460 ha         1 0M3       0.133500
     57 H24          9.0600    -8.6780     2.1900 ha         1 0M3       0.155250
     58 H25          7.3790    -7.8420     3.8280 ha         1 0M3       0.159500
     59 H26          4.9440    -7.8840     3.2940 ha         1 0M3       0.155250
     60 H27          4.1760    -8.6870     1.0640 ha         1 0M3       0.133500
     61 H28          6.1790   -11.5460    -2.8740 ha         1 0M3       0.133500
     62 H29          4.9850   -13.7190    -3.0810 ha         1 0M3       0.155250
     63 H30          3.1670   -14.3030    -1.4790 ha         1 0M3       0.159500
     64 H31          2.6200   -12.7510     0.3920 ha         1 0M3       0.155250
     65 H32          3.3000   -10.7430     0.4150 ha         1 0M3       0.133500
     66 H112         5.6880    -1.6660     1.0930 hn         1 0M3       0.398800
     67 H202         6.2580    -6.8070    -2.6060 hn         1 0M3       0.470300
@<TRIPOS>BOND
     1     9     8 2   
     2    10     8 2   
     3     8    11 1   
     4     8     5 1   
     5    14    13 1   
     6    14    15 1   
     7    12    13 1   
     8    12    11 1   
     9    12    17 1   
    10     6     5 ar  
    11     6     7 ar  
    12    15    16 1   
    13     5     4 ar  
    14    16    17 1   
    15    16    18 1   
    16     7     2 ar  
    17    20    18 1   
    18    20    21 1   
    19    18    19 2   
    20     4     3 ar  
    21    21    22 1   
    22     2     3 ar  
    23     2     1 1   
    24    24    25 ar  
    25    24    23 ar  
    26    22    23 1   
    27    22    29 1   
    28    25    26 ar  
    29    23    28 ar  
    30    30    29 ar  
    31    30    31 ar  
    32    29    34 ar  
    33    26    27 ar  
    34    31    32 ar  
    35    28    27 ar  
    36    34    33 ar  
    37    32    33 ar  
    38     1    35 1   
    39     1    36 1   
    40     1    37 1   
    41     3    38 1   
    42     4    39 1   
    43     6    40 1   
    44     7    41 1   
    45    11    42 1   
    46    12    43 1   
    47    13    44 1   
    48    13    45 1   
    49    14    46 1   
    50    15    47 1   
    51    15    48 1   
    52    16    49 1   
    53    17    50 1   
    54    17    51 1   
    55    20    52 1   
    56    21    53 1   
    57    21    54 1   
    58    22    55 1   
    59    24    56 1   
    60    25    57 1   
    61    26    58 1   
    62    27    59 1   
    63    28    60 1   
    64    30    61 1   
    65    31    62 1   
    66    32    63 1   
    67    33    64 1   
    68    34    65 1   
    69    66    11 1   
    70    67    20 1   
@<TRIPOS>SUBSTRUCTURE
     1 0M3         1 TEMP              0 ****  ****    0 ROOT
