@<TRIPOS>MOLECULE
0M3
   65    68     1     0     0
SMALL
bcc


@<TRIPOS>ATOM
      1 C1           0.0000     0.0000     0.0000 c3         1 0M3       0.056200
      2 C2           1.5080     0.0000     0.0000 ca         1 0M3      -0.034300
      3 C3           2.1990     0.0000     1.1970 ca         1 0M3      -0.135000
      4 C4           3.5810     0.0000     1.1970 ca         1 0M3       0.009000
      5 C5           4.2720     0.0000     0.0000 ca         1 0M3      -0.168500
      6 C6           3.5810    -0.0010    -1.1970 ca         1 0M3       0.009000
      7 C7           2.1980    -0.0070    -1.1970 ca         1 0M3      -0.135000
      8 S8           6.0330     0.0020    -0.0000 sy         1 0M3       1.041200
      9 O9           6.4350     0.5450    -1.2500 o          1 0M3      -0.587800
     10 O10          6.4350     0.5470     1.2500 o          1 0M3      -0.587800
     11 N11          6.5250    -1.5800     0.0010 n7         1 0M3      -0.569100
     12 C12          6.2310    -2.4400    -1.1480 c3         1 0M3       0.168500
     13 C13          7.4300    -2.4490    -2.0990 c3         1 0M3       0.112800
     14 N14          7.1420    -3.3270    -3.2410 n7         1 0M3      -0.568200
     15 C15          6.9250    -4.7120    -2.8040 c3         1 0M3       0.146800
     16 C16          5.7110    -4.7700    -1.8740 c3         1 0M3      -0.156700
     17 C17          5.9590    -3.8660    -0.6630 c3         1 0M3      -0.024400
     18 C18          5.5010    -6.1880    -1.4090 c          1 0M3       0.579100
     19 O19          5.5410    -6.4500    -0.2260 o          1 0M3      -0.646100
     20 N20          5.2680    -7.1650    -2.3090 ns         1 0M3      -0.197900
     21 C21          5.0640    -8.5430    -1.8570 c3         1 0M3       0.047000
     22 C22          4.8210    -9.4460    -3.0680 c3         1 0M3       0.055900
     23 C23          4.7320   -10.8800    -2.6150 ca         1 0M3      -0.090300
     24 C24          5.5220   -11.8450    -3.2140 ca         1 0M3      -0.099750
     25 C25          5.4410   -13.1610    -2.7990 ca         1 0M3      -0.095500
     26 C26          4.5720   -13.5130    -1.7830 ca         1 0M3      -0.099500
     27 C27          3.7830   -12.5480    -1.1840 ca         1 0M3      -0.095500
     28 C28          3.8670   -11.2310    -1.5960 ca         1 0M3      -0.099750
     29 C29          3.5310    -9.0500    -3.7380 ca         1 0M3      -0.090300
     30 C30          2.3700    -8.9440    -2.9960 ca         1 0M3      -0.099750
     31 C31          1.1860    -8.5820    -3.6110 ca         1 0M3      -0.095500
     32 C32          1.1630    -8.3260    -4.9690 ca         1 0M3      -0.099500
     33 C33          2.3240    -8.4310    -5.7120 ca         1 0M3      -0.095500
     34 C34          3.5090    -8.7900    -5.0960 ca         1 0M3      -0.099750
     35 H1          -0.3610    -0.7300     0.7150 hc         1 0M3       0.012033
     36 H2          -0.3610    -0.2540    -0.9890 hc         1 0M3       0.012033
     37 H3          -0.3610     0.9840     0.2740 hc         1 0M3       0.012033
     38 H4           1.6570    -0.0000     2.1350 ha         1 0M3       0.112500
     39 H5           4.1230     0.0000     2.1350 ha         1 0M3       0.122000
     40 H6           4.1220    -0.0030    -2.1350 ha         1 0M3       0.122000
     41 H7           1.6560    -0.0080    -2.1350 ha         1 0M3       0.112500
     42 H8           7.0440    -1.9420     0.7770 hn         1 0M3       0.353800
     43 H9           5.3600    -2.0650    -1.6720 h1         1 0M3       0.028700
     44 H10          7.6140    -1.4430    -2.4560 h1         1 0M3       0.043700
     45 H11          8.3030    -2.8170    -1.5740 h1         1 0M3       0.043700
     46 H12          6.3280    -2.9960    -3.7200 hn         1 0M3       0.252800
     47 H14          6.7440    -5.3380    -3.6700 h1         1 0M3       0.026700
     48 H15          7.8010    -5.0640    -2.2740 h1         1 0M3       0.026700
     49 H16          4.8330    -4.4250    -2.4060 hc         1 0M3       0.039700
     50 H17          5.0830    -3.8690    -0.0250 hc         1 0M3       0.038200
     51 H18          6.8170    -4.2290    -0.1110 hc         1 0M3       0.038200
     52 H19          5.2550    -6.9520    -3.2860 hn         1 0M3       0.180500
     53 H20          4.2050    -8.5840    -1.1980 h1         1 0M3       0.034700
     54 H21          5.9440    -8.8820    -1.3240 h1         1 0M3       0.034700
     55 H22          5.6400    -9.3380    -3.7680 hc         1 0M3       0.035700
     56 H23          6.2040   -11.5690    -4.0100 ha         1 0M3       0.110500
     57 H24          6.0600   -13.9160    -3.2680 ha         1 0M3       0.103500
     58 H25          4.5070   -14.5440    -1.4590 ha         1 0M3       0.103500
     59 H26          3.1030   -12.8240    -0.3860 ha         1 0M3       0.103500
     60 H27          3.2490   -10.4760    -1.1270 ha         1 0M3       0.110500
     61 H28          2.3880    -9.1440    -1.9310 ha         1 0M3       0.110500
     62 H29          0.2760    -8.4980    -3.0290 ha         1 0M3       0.103500
     63 H30          0.2360    -8.0440    -5.4520 ha         1 0M3       0.103500
     64 H31          2.3070    -8.2290    -6.7770 ha         1 0M3       0.103500
     65 H32          4.4190    -8.8720    -5.6780 ha         1 0M3       0.110500
@<TRIPOS>BOND
     1     1     2 1   
     2     1    35 1   
     3     1    36 1   
     4     1    37 1   
     5     2     3 ar  
     6     2     7 ar  
     7     3     4 ar  
     8     3    38 1   
     9     4     5 ar  
    10     4    39 1   
    11     5     6 ar  
    12     5     8 1   
    13     6     7 ar  
    14     6    40 1   
    15     7    41 1   
    16     8     9 2   
    17     8    10 2   
    18     8    11 1   
    19    11    12 1   
    20    11    42 1   
    21    12    13 1   
    22    12    17 1   
    23    12    43 1   
    24    13    14 1   
    25    13    44 1   
    26    13    45 1   
    27    14    15 1   
    28    14    46 1   
    29    15    16 1   
    30    15    47 1   
    31    15    48 1   
    32    16    17 1   
    33    16    18 1   
    34    16    49 1   
    35    17    50 1   
    36    17    51 1   
    37    18    19 2   
    38    18    20 1   
    39    20    21 1   
    40    20    52 1   
    41    21    22 1   
    42    21    53 1   
    43    21    54 1   
    44    22    23 1   
    45    22    29 1   
    46    22    55 1   
    47    23    24 ar  
    48    23    28 ar  
    49    24    25 ar  
    50    24    56 1   
    51    25    26 ar  
    52    25    57 1   
    53    26    27 ar  
    54    26    58 1   
    55    27    28 ar  
    56    27    59 1   
    57    28    60 1   
    58    29    30 ar  
    59    29    34 ar  
    60    30    31 ar  
    61    30    61 1   
    62    31    32 ar  
    63    31    62 1   
    64    32    33 ar  
    65    32    63 1   
    66    33    34 ar  
    67    33    64 1   
    68    34    65 1   
@<TRIPOS>SUBSTRUCTURE
     1 0M3         1 TEMP              0 ****  ****    0 ROOT
