@<TRIPOS>MOLECULE
molecule
   42    44     1     0     0
SMALL
bcc


@<TRIPOS>ATOM
      1 C01          0.0000     0.0000     0.0000 ca         1 0M4      -0.030600
      2 C02          1.3860     0.0000     0.0000 ca         1 0M4       0.160900
      3 C03          2.0770     0.0000     1.1980 ca         1 0M4      -0.165000
      4 C04          1.3820    -0.0020     2.3990 ca         1 0M4       0.081600
      5 C05         -0.0080    -0.0030     2.3960 ca         1 0M4      -0.165000
      6 C06         -0.6940    -0.0010     1.1970 ca         1 0M4      -0.081000
      7 Cl1         -0.8670     0.0080    -1.5040 cl         1 0M4      -0.086400
      8 F08          2.0620     0.0020    -1.1700 f          1 0M4      -0.122900
      9 N09          2.0780    -0.0030     3.6120 ns         1 0M4      -0.451100
     10 C10          3.2590     0.6380     3.7110 c          1 0M4       0.595100
     11 C11          4.0590     0.5400     4.9680 c          1 0M4       0.592100
     12 N12          5.2390     1.1820     5.0680 ns         1 0M4      -0.553900
     13 O13          3.6460    -0.1190     5.9000 o          1 0M4      -0.603100
     14 O14          3.6720     1.2970     2.7790 o          1 0M4      -0.587100
     15 C15          6.0250     1.0840     6.3010 c3         1 0M4       0.131000
     16 C16          7.3110     1.8990     6.1520 c3         1 0M4      -0.085000
     17 C17          8.1920     1.3730     5.0000 c3         1 0M4       0.139800
     18 N18          9.1970     0.5010     5.6610 n7         1 0M4      -0.788200
     19 C19          9.5450     1.2280     6.9080 c3         1 0M4       0.139800
     20 C20          8.2050     1.8020     7.4130 c3         1 0M4      -0.062700
     21 C21          7.0190     3.3930     5.9150 c3         1 0M4      -0.084400
     22 C22          8.4330     3.2480     7.8970 c3         1 0M4      -0.083400
     23 C23          7.1870     4.0440     7.3100 c3         1 0M4      -0.082400
     24 H1           3.1600     0.0000     1.1990 ha         1 0M4       0.178000
     25 H2          -0.5520    -0.0040     3.3320 ha         1 0M4       0.144000
     26 H3          -1.7780    -0.0020     1.1940 ha         1 0M4       0.153000
     27 H4           1.7160    -0.5090     4.3960 hn         1 0M4       0.352500
     28 H5           5.5800     1.7250     4.2990 hn         1 0M4       0.337500
     29 H6           6.2740     0.0470     6.4890 h1         1 0M4       0.065200
     30 H7           5.4450     1.4730     7.1300 h1         1 0M4       0.065200
     31 H9           8.6830     2.1970     4.4960 h1         1 0M4       0.044200
     32 H8           7.5950     0.7980     4.3030 h1         1 0M4       0.044200
     33 H10         10.0090     0.4280     5.0800 hn         1 0M4       0.348800
     34 H12         10.2410     2.0290     6.6950 h1         1 0M4       0.043200
     35 H13          9.9600     0.5430     7.6390 h1         1 0M4       0.043200
     36 H14          7.7590     1.1810     8.1800 hc         1 0M4       0.072700
     37 H15          7.7330     3.8110     5.2150 hc         1 0M4       0.050700
     38 H16          6.0050     3.5270     5.5560 hc         1 0M4       0.050700
     39 H18          9.3580     3.6410     7.4930 hc         1 0M4       0.048700
     40 H17          8.4330     3.2900     8.9790 hc         1 0M4       0.048700
     41 H20          7.4140     5.0990     7.2170 hc         1 0M4       0.049700
     42 H19          6.3060     3.8820     7.9180 hc         1 0M4       0.049700
@<TRIPOS>BOND
     1    22    23 1
     2    22    20 1
     3    23    21 1
     4    20    19 1
     5    20    16 1
     6    19    18 1
     7    21    16 1
     8    16    15 1
     9    16    17 1
    10    18    17 1
    11    15    12 1
    12    12    11 1
    13    11    13 2
    14    11    10 1
    15    14    10 2
    16    10     9 1
    17     9     4 1
    18     3     4 ar
    19     3     2 ar
    20     4     5 ar
    21     8     2 1
    22     2     1 ar
    23     5     6 ar
    24     1     6 ar
    25     1     7 1
    26     3    24 1
    27     5    25 1
    28     6    26 1
    29     9    27 1
    30    12    28 1
    31    15    29 1
    32    15    30 1
    33    17    31 1
    34    17    32 1
    35    18    33 1
    36    19    34 1
    37    19    35 1
    38    20    36 1
    39    21    37 1
    40    21    38 1
    41    22    39 1
    42    22    40 1
    43    23    41 1
    44    23    42 1
@<TRIPOS>SUBSTRUCTURE
     1 0M4         1 TEMP              0 ****  ****    0 ROOT
