@<TRIPOS>MOLECULE
0M4
   43    45     1     0     0
SMALL
bcc


@<TRIPOS>ATOM
      1 C01          0.4750    -1.2060     0.7430 ca         1 0M4      -0.017600
      2 C02          1.8420    -0.8710     0.6290 ca         1 0M4       0.163900
      3 C03          2.5110    -0.2380     1.6960 ca         1 0M4      -0.171000
      4 C04          1.8160     0.0580     2.8770 ca         1 0M4       0.036600
      5 C05          0.4460    -0.2790     2.9870 ca         1 0M4      -0.152000
      6 C06         -0.2020    -0.9000     1.9290 ca         1 0M4      -0.076000
      7 Cl1         -0.3590    -1.9640    -0.5140 cl         1 0M4      -0.018400
      8 F08          2.5420    -1.1430    -0.4930 f          1 0M4      -0.104900
      9 N09          2.4270     0.7030     3.9830 ns         1 0M4      -0.392100
     10 C10          3.7550     0.9490     4.1220 c          1 0M4       0.619100
     11 C11          4.1390     1.6500     5.4510 c          1 0M4       0.444100
     12 N12          5.6140     1.8600     5.6440 ny         1 0M4      -0.664800
     13 O13          3.3770     2.0490     6.3160 o          1 0M4      -0.390100
     14 O14          4.6800     0.6970     3.3300 o          1 0M4      -0.561100
     15 C15          6.1330     1.2620     6.9180 c3         1 0M4       0.124800
     16 C16          6.7730    -0.1120     6.7350 c3         1 0M4      -0.099000
     17 C17          5.7350    -1.1780     6.3070 c3         1 0M4       0.166800
     18 N18          5.2950    -1.8910     7.4950 n7         1 0M4      -0.817200
     19 C19          6.2570    -1.6700     8.5700 c3         1 0M4       0.149800
     20 C20          7.2780    -0.6060     8.1240 c3         1 0M4      -0.064700
     21 C21          7.9880    -0.0750     5.8120 c3         1 0M4      -0.089400
     22 C22          8.6930    -1.1330     7.9130 c3         1 0M4      -0.082400
     23 C23          9.0320    -0.9930     6.4350 c3         1 0M4      -0.077400
     24 H1           3.5790     0.0070     1.5630 ha         1 0M4       0.184000
     25 H2          -0.1230    -0.0560     3.9040 ha         1 0M4       0.152000
     26 H3          -1.2710    -1.1570     2.0270 ha         1 0M4       0.173000
     27 H4           1.8100     0.9620     4.7300 hn         1 0M4       0.357500
     28 H5           5.7950     2.8710     5.6490 hn         1 0M4       0.477800
     29 H6           6.9020     1.9800     7.3290 hx         1 0M4       0.116200
     30 H7           5.2760     1.1880     7.6510 hx         1 0M4       0.116200
     31 H9           4.8280    -0.7060     5.8370 h1         1 0M4       0.036700
     32 H8           6.1930    -1.8570     5.5330 h1         1 0M4       0.036700
     33 H10          5.1700    -2.8680     7.3070 hn         1 0M4       0.384800
     34 H12          6.7790    -2.6170     8.8790 h1         1 0M4       0.063700
     35 H13          5.6780    -1.2960     9.4610 h1         1 0M4       0.063700
     36 H14          7.2940     0.2270     8.8720 hc         1 0M4       0.067700
     37 H15          7.7290    -0.4100     4.7760 hc         1 0M4       0.050200
     38 H16          8.3960     0.9660     5.7430 hc         1 0M4       0.050200
     39 H18          8.7830    -2.2010     8.2360 hc         1 0M4       0.066200
     40 H17          9.4130    -0.5410     8.5340 hc         1 0M4       0.066200
     41 H20          9.0080    -1.9950     5.9340 hc         1 0M4       0.065200
     42 H19         10.0600    -0.5750     6.2950 hc         1 0M4       0.065200
     43 H122         6.1120     1.4370     4.8400 hn         1 0M4       0.477800
@<TRIPOS>BOND
     1     1     2 ar  
     2     1     6 ar  
     3     1     7 1   
     4     2     3 ar  
     5     2     8 1   
     6     3     4 ar  
     7     3    24 1   
     8     4     5 ar  
     9     4     9 1   
    10     5     6 ar  
    11     5    25 1   
    12     6    26 1   
    13     9    10 1   
    14     9    27 1   
    15    10    11 1   
    16    10    14 2   
    17    11    12 1   
    18    11    13 2   
    19    12    15 1   
    20    12    28 1   
    21    12    43 1   
    22    15    16 1   
    23    15    29 1   
    24    15    30 1   
    25    16    17 1   
    26    16    20 1   
    27    16    21 1   
    28    17    18 1   
    29    17    31 1   
    30    17    32 1   
    31    18    19 1   
    32    18    33 1   
    33    19    20 1   
    34    19    34 1   
    35    19    35 1   
    36    20    22 1   
    37    20    36 1   
    38    21    23 1   
    39    21    37 1   
    40    21    38 1   
    41    22    23 1   
    42    22    39 1   
    43    22    40 1   
    44    23    41 1   
    45    23    42 1   
@<TRIPOS>SUBSTRUCTURE
     1 0M4         1 TEMP              0 ****  ****    0 ROOT
