@<TRIPOS>MOLECULE
0M5
   42    44     1     0     0
SMALL
bcc


@<TRIPOS>ATOM
      1 C01          0.0000     0.0000     0.0000 ca         1 0M5       0.132900
      2 C02          1.3860     0.0000     0.0000 ca         1 0M5      -0.088600
      3 C03          2.0800     0.0000     1.1970 ca         1 0M5      -0.056000
      4 C04          1.3940    -0.0010     2.3950 ca         1 0M5      -0.130000
      5 C05          0.0040    -0.0010     2.4000 ca         1 0M5      -0.072400
      6 C06         -0.6920    -0.0000     1.1980 ca         1 0M5      -0.130000
      7 C10         -5.9260    -1.9040     6.1500 c3         1 0M5      -0.076700
      8 C11         -5.6010    -3.4130     6.0740 c3         1 0M5      -0.033400
      9 C15         -8.5880    -4.6180     9.2440 cx         1 0M5      -0.072900
     10 Cl           2.2520    -0.0000    -1.5040 cl         1 0M5       0.005600
     11 F           -0.6760     0.0060    -1.1690 f          1 0M5      -0.118900
     12 N01         -0.6910    -0.0010     3.6120 ns         1 0M5       0.006900
     13 C07         -1.8730    -0.6430     3.7110 c          1 0M5       0.492100
     14 O01         -2.2870    -1.2990     2.7780 o          1 0M5      -0.636100
     15 C08         -2.6730    -0.5450     4.9680 c          1 0M5       0.497100
     16 N02         -3.8540    -1.1860     5.0670 ns         1 0M5      -0.147900
     17 O           -2.2590     0.1120     5.9010 o          1 0M5      -0.653100
     18 C09         -4.6390    -1.0900     6.3000 c3         1 0M5       0.048000
     19 C12         -6.7400    -4.0560     6.9040 c3         1 0M5       0.152800
     20 N           -6.9420    -3.0870     8.0110 n3         1 0M5      -0.500600
     21 C13         -6.8090    -1.7430     7.4030 c3         1 0M5       0.158800
     22 C14         -8.2660    -3.2570     8.6260 cx         1 0M5       0.040500
     23 C           -8.3250    -3.4110    10.1470 cx         1 0M5      -0.072900
     24 H01          3.1630     0.0000     1.1940 ha         1 0M5       0.119000
     25 H02          1.9390    -0.0010     3.3310 ha         1 0M5       0.115000
     26 H03         -1.7760    -0.0000     1.1980 ha         1 0M5       0.155000
     27 H08         -6.4720    -1.5950     5.2670 hc         1 0M5       0.032700
     28 H09         -5.6340    -3.7590     5.0470 hc         1 0M5       0.027200
     29 H10         -4.6370    -3.6190     6.5240 hc         1 0M5       0.027200
     30 H16         -7.7920    -5.3520     9.2000 hc         1 0M5       0.048950
     31 H04         -0.3320     0.5090     4.3950 hn         1 0M5       0.192500
     32 H05         -4.2100    -1.7020     4.2870 hn         1 0M5       0.196500
     33 H06         -4.0590    -1.4800     7.1280 h1         1 0M5       0.034700
     34 H07         -4.8870    -0.0530     6.4900 h1         1 0M5       0.034700
     35 H11         -7.6400    -4.1470     6.3090 h1         1 0M5       0.017200
     36 H12         -6.4310    -5.0190     7.2930 h1         1 0M5       0.017200
     37 H13         -7.7850    -1.3680     7.1200 h1         1 0M5       0.019700
     38 H14         -6.3350    -1.0660     8.1030 h1         1 0M5       0.019700
     39 H15         -9.1140    -2.7450     8.1880 h1         1 0M5       0.051700
     40 H           -7.3680    -3.4070    10.6550 hc         1 0M5       0.048950
     41 H18         -9.1980    -2.9860    10.6260 hc         1 0M5       0.048950
     42 H17         -9.6220    -4.9310     9.1720 hc         1 0M5       0.048950
@<TRIPOS>BOND
     1     1     2 ar  
     2     1     6 ar  
     3     1    11 1   
     4     2     3 ar  
     5     2    10 1   
     6     3     4 ar  
     7     3    24 1   
     8     4     5 ar  
     9     4    25 1   
    10     5     6 ar  
    11     5    12 1   
    12     6    26 1   
    13     7     8 1   
    14     7    18 1   
    15     7    21 1   
    16     7    27 1   
    17     8    19 1   
    18     8    28 1   
    19     8    29 1   
    20     9    22 1   
    21     9    23 1   
    22     9    30 1   
    23     9    42 1   
    24    12    13 1   
    25    12    31 1   
    26    13    14 2   
    27    13    15 1   
    28    15    16 1   
    29    15    17 2   
    30    16    18 1   
    31    16    32 1   
    32    18    33 1   
    33    18    34 1   
    34    19    20 1   
    35    19    35 1   
    36    19    36 1   
    37    20    21 1   
    38    20    22 1   
    39    21    37 1   
    40    21    38 1   
    41    22    23 1   
    42    22    39 1   
    43    23    40 1   
    44    23    41 1   
@<TRIPOS>SUBSTRUCTURE
     1 0M5         1 TEMP              0 ****  ****    0 ROOT
