@<TRIPOS>MOLECULE
molecule
   42    44     1     0     0
SMALL
bcc


@<TRIPOS>ATOM
      1 C01          0.0000     0.0000     0.0000 ca         1 0M5       0.160900
      2 C02          1.3860     0.0000     0.0000 ca         1 0M5      -0.030600
      3 C03          2.0800     0.0000     1.1970 ca         1 0M5      -0.080000
      4 C04          1.3940    -0.0010     2.3950 ca         1 0M5      -0.165000
      5 C05          0.0040    -0.0010     2.4000 ca         1 0M5       0.081600
      6 C06         -0.6920    -0.0000     1.1980 ca         1 0M5      -0.166000
      7 C10         -5.9260    -1.9040     6.1500 c3         1 0M5      -0.104700
      8 C11         -5.6010    -3.4130     6.0740 c3         1 0M5      -0.086400
      9 C15         -8.5880    -4.6180     9.2440 cx         1 0M5      -0.127900
     10 Cl           2.2520    -0.0000    -1.5040 cl         1 0M5      -0.085400
     11 F           -0.6760     0.0060    -1.1690 f          1 0M5      -0.122900
     12 N01         -0.6910    -0.0010     3.6120 ns         1 0M5      -0.452100
     13 C07         -1.8730    -0.6430     3.7110 c          1 0M5       0.595100
     14 O01         -2.2870    -1.2990     2.7780 o          1 0M5      -0.585100
     15 C08         -2.6730    -0.5450     4.9680 c          1 0M5       0.593100
     16 N02         -3.8540    -1.1860     5.0670 ns         1 0M5      -0.553900
     17 O           -2.2590     0.1120     5.9010 o          1 0M5      -0.602100
     18 C09         -4.6390    -1.0900     6.3000 c3         1 0M5       0.119000
     19 C12         -6.7400    -4.0560     6.9040 c3         1 0M5       0.147800
     20 N           -6.9420    -3.0870     8.0110 n3         1 0M5      -0.671600
     21 C13         -6.8090    -1.7430     7.4030 c3         1 0M5       0.157800
     22 C14         -8.2660    -3.2570     8.6260 cx         1 0M5       0.075500
     23 C           -8.3250    -3.4110    10.1470 cx         1 0M5      -0.127900
     24 H01          3.1630     0.0000     1.1940 ha         1 0M5       0.153000
     25 H02          1.9390    -0.0010     3.3310 ha         1 0M5       0.144000
     26 H03         -1.7760    -0.0000     1.1980 ha         1 0M5       0.178000
     27 H08         -6.4720    -1.5950     5.2670 hc         1 0M5       0.058700
     28 H09         -5.6340    -3.7590     5.0470 hc         1 0M5       0.056700
     29 H10         -4.6370    -3.6190     6.5240 hc         1 0M5       0.056700
     30 H16         -7.7920    -5.3520     9.2000 hc         1 0M5       0.078450
     31 H04         -0.3320     0.5090     4.3950 hn         1 0M5       0.352500
     32 H05         -4.2100    -1.7020     4.2870 hn         1 0M5       0.337500
     33 H06         -4.0590    -1.4800     7.1280 h1         1 0M5       0.061700
     34 H07         -4.8870    -0.0530     6.4900 h1         1 0M5       0.061700
     35 H11         -7.6400    -4.1470     6.3090 h1         1 0M5       0.046700
     36 H12         -6.4310    -5.0190     7.2930 h1         1 0M5       0.046700
     37 H13         -7.7850    -1.3680     7.1200 h1         1 0M5       0.048700
     38 H14         -6.3350    -1.0660     8.1030 h1         1 0M5       0.048700
     39 H15         -9.1140    -2.7450     8.1880 h1         1 0M5       0.067700
     40 H           -7.3680    -3.4070    10.6550 hc         1 0M5       0.078450
     41 H18         -9.1980    -2.9860    10.6260 hc         1 0M5       0.078450
     42 H17         -9.6220    -4.9310     9.1720 hc         1 0M5       0.078450
@<TRIPOS>BOND
     1     9    23 1
     2     9    22 1
     3    23    22 1
     4    19    20 1
     5    19     8 1
     6    20    22 1
     7    20    21 1
     8    21     7 1
     9     8     7 1
    10     7    18 1
    11    18    16 1
    12    16    15 1
    13    15    17 2
    14    15    13 1
    15    14    13 2
    16    13    12 1
    17    12     5 1
    18     5     6 ar
    19     5     4 ar
    20     6     1 ar
    21    11     1 1
    22     1     2 ar
    23     4     3 ar
    24     2     3 ar
    25     2    10 1
    26     3    24 1
    27     4    25 1
    28     6    26 1
    29     7    27 1
    30     8    28 1
    31     8    29 1
    32     9    42 1
    33     9    30 1
    34    12    31 1
    35    16    32 1
    36    18    33 1
    37    18    34 1
    38    19    35 1
    39    19    36 1
    40    21    37 1
    41    21    38 1
    42    22    39 1
    43    23    40 1
    44    23    41 1
@<TRIPOS>SUBSTRUCTURE
     1 0M5         1 TEMP              0 ****  ****    0 ROOT
