@<TRIPOS>MOLECULE
0M5
   43    45     1     0     0
SMALL
bcc


@<TRIPOS>ATOM
      1 C01         -0.0070    -1.2900     0.6520 ca         1 0M5       0.164900
      2 C02          1.1180    -0.4640     0.4370 ca         1 0M5      -0.017600
      3 C03          1.3850     0.5670     1.3460 ca         1 0M5      -0.076000
      4 C04          0.5680     0.7860     2.4450 ca         1 0M5      -0.153000
      5 C05         -0.5590    -0.0410     2.6630 ca         1 0M5       0.035600
      6 C06         -0.8450    -1.0780     1.7650 ca         1 0M5      -0.171000
      7 C10         -3.6660    -2.2970     7.5960 c3         1 0M5      -0.100700
      8 C11         -3.7180    -2.5470     9.1100 c3         1 0M5      -0.089400
      9 C15         -6.4390    -6.3560     8.4080 cx         1 0M5      -0.109400
     10 Cl           2.1430    -0.6890    -0.8840 cl         1 0M5      -0.017400
     11 F           -0.3100    -2.2990    -0.1930 f          1 0M5      -0.103900
     12 N01         -1.3600     0.2290     3.8040 ns         1 0M5      -0.393100
     13 C07         -2.4800    -0.4480     4.1670 c          1 0M5       0.615100
     14 O01         -3.0240    -1.4130     3.6040 o          1 0M5      -0.556100
     15 C08         -3.1510     0.0760     5.4650 c          1 0M5       0.439100
     16 N02         -4.4170    -0.6340     5.8400 ny         1 0M5      -0.664800
     17 O           -2.7600     0.9900     6.1720 o          1 0M5      -0.393100
     18 C09         -4.4680    -1.0370     7.2820 c3         1 0M5       0.110800
     19 C12         -4.7080    -3.7070     9.3080 c3         1 0M5       0.154800
     20 N           -5.1550    -4.1750     7.9910 n3         1 0M5      -0.701600
     21 C13         -4.3010    -3.5600     6.9740 c3         1 0M5       0.157800
     22 C14         -5.2280    -5.6100     7.8800 cx         1 0M5       0.078500
     23 C           -6.2210    -6.2550     6.9300 cx         1 0M5      -0.109400
     24 H01          2.2620     1.2180     1.1860 ha         1 0M5       0.173000
     25 H02          0.8140     1.6090     3.1360 ha         1 0M5       0.151000
     26 H03         -1.7120    -1.7480     1.8910 ha         1 0M5       0.186000
     27 H08         -2.6070    -2.1810     7.2500 hc         1 0M5       0.071700
     28 H09         -2.7020    -2.8330     9.4800 hc         1 0M5       0.069700
     29 H10         -4.0470    -1.6440     9.6780 hc         1 0M5       0.069700
     30 H04         -1.0540     0.9920     4.3780 hn         1 0M5       0.356500
     31 H05         -4.5060    -1.4770     5.2420 hn         1 0M5       0.480300
     32 H06         -4.0830    -0.1680     7.8910 hx         1 0M5       0.120200
     33 H07         -5.5540    -1.2190     7.5390 hx         1 0M5       0.120200
     34 H11         -4.2280    -4.5220     9.9170 h1         1 0M5       0.065200
     35 H12         -5.6230    -3.3580     9.8610 h1         1 0M5       0.065200
     36 H13         -4.9530    -3.3260     6.0910 h1         1 0M5       0.047700
     37 H14         -3.4790    -4.2450     6.6170 h1         1 0M5       0.047700
     38 H15         -4.2410    -6.1210     7.9910 h1         1 0M5       0.067700
     39 H           -5.8880    -7.1460     6.3670 hc         1 0M5       0.082200
     40 H18         -6.9010    -5.6190     6.3360 hc         1 0M5       0.082200
     41 H17         -7.2720    -5.7900     8.8630 hc         1 0M5       0.082200
     42 H022        -5.2080    -0.0090     5.6420 hn         1 0M5       0.480300
     43 H16         -6.2640    -7.3190     8.9190 hc         1 0M5       0.082200
@<TRIPOS>BOND
     1     1     2 ar  
     2     1     6 ar  
     3     1    11 1   
     4     2     3 ar  
     5     2    10 1   
     6     3     4 ar  
     7     3    24 1   
     8     4     5 ar  
     9     4    25 1   
    10     5     6 ar  
    11     5    12 1   
    12     6    26 1   
    13     7     8 1   
    14     7    18 1   
    15     7    21 1   
    16     7    27 1   
    17     8    19 1   
    18     8    28 1   
    19     8    29 1   
    20     9    22 1   
    21     9    23 1   
    22     9    41 1   
    23     9    43 1   
    24    12    13 1   
    25    12    30 1   
    26    13    14 2   
    27    13    15 1   
    28    15    16 1   
    29    15    17 2   
    30    16    18 1   
    31    16    31 1   
    32    16    42 1   
    33    18    32 1   
    34    18    33 1   
    35    19    20 1   
    36    19    34 1   
    37    19    35 1   
    38    20    21 1   
    39    20    22 1   
    40    21    36 1   
    41    21    37 1   
    42    22    23 1   
    43    22    38 1   
    44    23    39 1   
    45    23    40 1   
@<TRIPOS>SUBSTRUCTURE
     1 0M5         1 TEMP              0 ****  ****    0 ROOT
