@<TRIPOS>MOLECULE
molecule
   51    51     1     0     0
SMALL
bcc


@<TRIPOS>ATOM
      1 CAK          0.0000     0.0000     0.0000 ca         1 0M6      -0.111500
      2 CAI          1.3810     0.0000     0.0000 ca         1 0M6      -0.124500
      3 CAH          2.0740     0.0000     1.1970 ca         1 0M6      -0.125000
      4 CAJ          1.3870    -0.0010     2.3970 ca         1 0M6      -0.124500
      5 CAL          0.0060    -0.0000     2.4040 ca         1 0M6      -0.111500
      6 CAV         -0.6930     0.0000     1.2040 ca         1 0M6       0.036600
      7 NAP         -2.0910     0.0060     1.2070 ns         1 0M6      -0.418100
      8 CAU         -2.7710    -0.7960     0.3650 cs         1 0M6       0.608400
      9 SAG         -1.9300    -1.9310    -0.6020 s          1 0M6      -0.707400
     10 N           -4.1140    -0.7050     0.2820 ns         1 0M6      -0.506900
     11 CA          -4.8620    -1.6500    -0.5510 c3         1 0M6       0.042700
     12 CB          -5.0810    -2.9510     0.2230 c3         1 0M6      -0.089400
     13 CG          -5.8340    -3.9490    -0.6580 c3         1 0M6      -0.091700
     14 CD2         -4.9690    -4.3200    -1.8640 c3         1 0M6      -0.088600
     15 CD1         -6.1480    -5.2080     0.1510 c3         1 0M6      -0.088600
     16 C           -6.1970    -1.0510    -0.9130 c          1 0M6       0.655100
     17 O           -6.6700    -0.1670    -0.2320 o          1 0M6      -0.630100
     18 NAQ         -6.8650    -1.4990    -1.9950 ns         1 0M6      -0.568900
     19 CAZ         -8.1020    -0.8370    -2.4190 c3         1 0M6       0.120700
     20 CAX         -9.2830    -1.4110    -1.6330 c3         1 0M6       0.124400
     21 OAF         -9.4560    -2.7880    -1.9740 oh         1 0M6      -0.613800
     22 CAN         -8.3190    -1.0730    -3.9140 c3         1 0M6      -0.093400
     23 CAM         -7.2030    -0.3910    -4.7080 c3         1 0M6       0.138400
     24 OAE         -7.4070    -0.6120    -6.1040 oh         1 0M6      -0.609800
     25 H1          -0.5420     0.0000    -0.9380 ha         1 0M6       0.145500
     26 H2           1.9220     0.0000    -0.9390 ha         1 0M6       0.134000
     27 H3           3.1580    -0.0000     1.1940 ha         1 0M6       0.130000
     28 H4           1.9330    -0.0010     3.3330 ha         1 0M6       0.134000
     29 H5          -0.5310    -0.0000     3.3440 ha         1 0M6       0.145500
     30 H6          -2.5880     0.6060     1.8360 hn         1 0M6       0.321500
     31 H7          -4.5980     0.0180     0.7760 hn         1 0M6       0.333500
     32 H8          -4.3020    -1.8570    -1.4540 h1         1 0M6       0.117700
     33 H9          -5.6610    -2.7480     1.1150 hc         1 0M6       0.067700
     34 H10         -4.1220    -3.3700     0.5040 hc         1 0M6       0.067700
     35 H11         -6.7590    -3.5000    -1.0020 hc         1 0M6       0.061700
     36 H12         -4.0890    -4.8550    -1.5260 hc         1 0M6       0.037867
     37 H13         -4.6660    -3.4180    -2.3820 hc         1 0M6       0.037867
     38 H14         -5.5380    -4.9500    -2.5370 hc         1 0M6       0.037867
     39 H15         -6.6280    -5.9390    -0.4890 hc         1 0M6       0.037867
     40 H16         -6.8100    -4.9560     0.9700 hc         1 0M6       0.037867
     41 H17         -5.2280    -5.6230     0.5450 hc         1 0M6       0.037867
     42 H18         -6.4910    -2.2520    -2.5380 hn         1 0M6       0.334500
     43 H19         -8.0250     0.2270    -2.2290 h1         1 0M6       0.080700
     44 H20        -10.1830    -0.8610    -1.8820 h1         1 0M6       0.037700
     45 H21         -9.0880    -1.3230    -0.5720 h1         1 0M6       0.037700
     46 H22        -10.3190    -3.0690    -1.7180 ho         1 0M6       0.406000
     47 H23         -8.3080    -2.1370    -4.1170 hc         1 0M6       0.071200
     48 H24         -9.2760    -0.6600    -4.2100 hc         1 0M6       0.071200
     49 H25         -6.2460    -0.8040    -4.4130 h1         1 0M6       0.021200
     50 H26         -7.2140     0.6730    -4.5050 h1         1 0M6       0.021200
     51 H27         -6.7450    -0.1530    -6.5950 ho         1 0M6       0.405000
@<TRIPOS>BOND
     1    14    13 1   
     2    13    12 1   
     3    13    15 1   
     4    12    11 1   
     5     3     4 ar  
     6     3     2 ar  
     7     4     5 ar  
     8    20    21 1   
     9    20    19 1   
    10    17    16 2   
    11    11    16 1   
    12    11    10 1   
    13     2     1 ar  
    14     5     6 ar  
    15    16    18 1   
    16    10     8 1   
    17    18    19 1   
    18    19    22 1   
    19     1     6 ar  
    20     6     7 1   
    21     8     7 1   
    22     8     9 2   
    23    22    23 1   
    24    23    24 1   
    25     1    25 1   
    26     2    26 1   
    27     3    27 1   
    28     4    28 1   
    29     5    29 1   
    30     7    30 1   
    31    10    31 1   
    32    11    32 1   
    33    12    33 1   
    34    12    34 1   
    35    13    35 1   
    36    14    36 1   
    37    14    37 1   
    38    14    38 1   
    39    15    39 1   
    40    15    40 1   
    41    15    41 1   
    42    18    42 1   
    43    19    43 1   
    44    20    44 1   
    45    20    45 1   
    46    21    46 1   
    47    22    47 1   
    48    22    48 1   
    49    23    49 1   
    50    23    50 1   
    51    24    51 1   
@<TRIPOS>SUBSTRUCTURE
     1 0M6         1 TEMP              0 ****  ****    0 ROOT
