@<TRIPOS>MOLECULE
0M6
   51    51     1     0     0
SMALL
bcc


@<TRIPOS>ATOM
      1 CAK          0.0000     0.0000     0.0000 ca         1 0M6      -0.078500
      2 CAI          1.3810     0.0000     0.0000 ca         1 0M6      -0.098000
      3 CAH          2.0740     0.0000     1.1970 ca         1 0M6      -0.088000
      4 CAJ          1.3870    -0.0010     2.3970 ca         1 0M6      -0.098000
      5 CAL          0.0060    -0.0000     2.4040 ca         1 0M6      -0.078500
      6 CAV         -0.6930     0.0000     1.2040 ca         1 0M6      -0.133400
      7 NAP         -2.0910     0.0060     1.2070 ns         1 0M6       0.095900
      8 CAU         -2.7710    -0.7960     0.3650 cs         1 0M6       0.257400
      9 SAG         -1.9300    -1.9310    -0.6020 s          1 0M6      -0.736400
     10 N           -4.1140    -0.7050     0.2820 ns         1 0M6      -0.038900
     11 CA          -4.8620    -1.6500    -0.5510 c3         1 0M6      -0.094300
     12 CB          -5.0810    -2.9510     0.2230 c3         1 0M6      -0.041400
     13 CG          -5.8340    -3.9490    -0.6580 c3         1 0M6      -0.073700
     14 CD2         -4.9690    -4.3200    -1.8640 c3         1 0M6       0.001900
     15 CD1         -6.1480    -5.2080     0.1510 c3         1 0M6       0.001900
     16 C           -6.1970    -1.0510    -0.9130 c          1 0M6       0.574100
     17 O           -6.6700    -0.1670    -0.2320 o          1 0M6      -0.671100
     18 NAQ         -6.8650    -1.4990    -1.9950 ns         1 0M6      -0.177900
     19 CAZ         -8.1020    -0.8370    -2.4190 c3         1 0M6       0.015700
     20 CAX         -9.2830    -1.4110    -1.6330 c3         1 0M6       0.204400
     21 OAF         -9.4560    -2.7880    -1.9740 oh         1 0M6      -0.598800
     22 CAN         -8.3190    -1.0730    -3.9140 c3         1 0M6      -0.052400
     23 CAM         -7.2030    -0.3910    -4.7080 c3         1 0M6       0.221400
     24 OAE         -7.4070    -0.6120    -6.1040 oh         1 0M6      -0.589800
     25 H1          -0.5420     0.0000    -0.9380 ha         1 0M6       0.124000
     26 H2           1.9220     0.0000    -0.9390 ha         1 0M6       0.105500
     27 H3           3.1580    -0.0000     1.1940 ha         1 0M6       0.102000
     28 H4           1.9330    -0.0010     3.3330 ha         1 0M6       0.105500
     29 H5          -0.5310    -0.0000     3.3440 ha         1 0M6       0.124000
     30 H6          -2.5880     0.6060     1.8360 hn         1 0M6       0.152500
     31 H7          -4.5980     0.0180     0.7760 hn         1 0M6       0.183500
     32 H8          -4.3020    -1.8570    -1.4540 h1         1 0M6       0.105700
     33 H9          -5.6610    -2.7480     1.1150 hc         1 0M6       0.041700
     34 H10         -4.1220    -3.3700     0.5040 hc         1 0M6       0.041700
     35 H11         -6.7590    -3.5000    -1.0020 hc         1 0M6       0.036700
     36 H12         -4.0890    -4.8550    -1.5260 hc         1 0M6       0.008033
     37 H13         -4.6660    -3.4180    -2.3820 hc         1 0M6       0.008033
     38 H14         -5.5380    -4.9500    -2.5370 hc         1 0M6       0.008033
     39 H15         -6.6280    -5.9390    -0.4890 hc         1 0M6       0.008033
     40 H16         -6.8100    -4.9560     0.9700 hc         1 0M6       0.008033
     41 H17         -5.2280    -5.6230     0.5450 hc         1 0M6       0.008033
     42 H18         -6.4910    -2.2520    -2.5380 hn         1 0M6       0.202500
     43 H19         -8.0250     0.2270    -2.2290 h1         1 0M6       0.056700
     44 H20        -10.1830    -0.8610    -1.8820 h1         1 0M6       0.003200
     45 H21         -9.0880    -1.3230    -0.5720 h1         1 0M6       0.003200
     46 H22        -10.3190    -3.0690    -1.7180 ho         1 0M6       0.396000
     47 H23         -8.3080    -2.1370    -4.1170 hc         1 0M6       0.040700
     48 H24         -9.2760    -0.6600    -4.2100 hc         1 0M6       0.040700
     49 H25         -6.2460    -0.8040    -4.4130 h1         1 0M6      -0.015300
     50 H26         -7.2140     0.6730    -4.5050 h1         1 0M6      -0.015300
     51 H27         -6.7450    -0.1530    -6.5950 ho         1 0M6       0.393000
@<TRIPOS>BOND
     1     1     2 ar  
     2     1     6 ar  
     3     1    25 1   
     4     2     3 ar  
     5     2    26 1   
     6     3     4 ar  
     7     3    27 1   
     8     4     5 ar  
     9     4    28 1   
    10     5     6 ar  
    11     5    29 1   
    12     6     7 1   
    13     7     8 1   
    14     7    30 1   
    15     8     9 2   
    16     8    10 1   
    17    10    11 1   
    18    10    31 1   
    19    11    12 1   
    20    11    16 1   
    21    11    32 1   
    22    12    13 1   
    23    12    33 1   
    24    12    34 1   
    25    13    14 1   
    26    13    15 1   
    27    13    35 1   
    28    14    36 1   
    29    14    37 1   
    30    14    38 1   
    31    15    39 1   
    32    15    40 1   
    33    15    41 1   
    34    16    17 2   
    35    16    18 1   
    36    18    19 1   
    37    18    42 1   
    38    19    20 1   
    39    19    22 1   
    40    19    43 1   
    41    20    21 1   
    42    20    44 1   
    43    20    45 1   
    44    21    46 1   
    45    22    23 1   
    46    22    47 1   
    47    22    48 1   
    48    23    24 1   
    49    23    49 1   
    50    23    50 1   
    51    24    51 1   
@<TRIPOS>SUBSTRUCTURE
     1 0M6         1 TEMP              0 ****  ****    0 ROOT
