@<TRIPOS>MOLECULE
0M6
   53    53     1     0     0
SMALL
bcc


@<TRIPOS>ATOM
      1 CAK          0.7080    -0.0370     0.3590 ca         1 0M6      -0.125000
      2 CAI          1.9960    -0.3390     0.7990 ca         1 0M6      -0.098500
      3 CAH          2.2450    -0.5860     2.1480 ca         1 0M6      -0.068000
      4 CAJ          1.1970    -0.5340     3.0730 ca         1 0M6      -0.098500
      5 CAL         -0.0960    -0.2340     2.6590 ca         1 0M6      -0.125000
      6 CAV         -0.3450     0.0240     1.2920 ca         1 0M6      -0.110400
      7 NAP         -1.6740     0.2590     0.8320 ns         1 0M6      -0.308100
      8 CAU         -2.4360     1.3220     1.1550 cs         1 0M6       0.359400
      9 SAG         -3.9350     1.6110     0.7010 s          1 0M6      -0.358400
     10 N           -1.7900     2.3770     2.0440 ny         1 0M6      -0.632800
     11 CA          -2.8190     3.2230     2.7440 c3         1 0M6       0.071500
     12 CB          -2.1660     4.2100     3.7250 c3         1 0M6      -0.109400
     13 CG          -1.3020     3.5550     4.7930 c3         1 0M6      -0.079700
     14 CD2         -0.8870     4.6190     5.7960 c3         1 0M6      -0.106100
     15 CD1         -2.0110     2.4210     5.5000 c3         1 0M6      -0.106100
     16 C           -3.6090     4.0430     1.7050 c          1 0M6       0.562100
     17 O           -3.0650     4.6880     0.8150 o          1 0M6      -0.432100
     18 NAQ         -5.0830     4.1590     1.9040 ny         1 0M6      -0.644800
     19 CAZ         -5.6140     5.5490     1.6160 c3         1 0M6       0.100500
     20 CAX         -5.0660     6.5770     2.6310 c3         1 0M6       0.106400
     21 OAF         -3.6650     6.4430     2.7290 oh         1 0M6      -0.636800
     22 CAN         -7.1420     5.5760     1.6550 c3         1 0M6      -0.119400
     23 CAM         -7.8000     4.7240     0.5820 c3         1 0M6       0.116400
     24 OAE         -7.5510     3.3610     0.9030 oh         1 0M6      -0.673800
     25 H1           0.5290     0.1340    -0.7160 ha         1 0M6       0.153500
     26 H2           2.8200    -0.3950     0.0650 ha         1 0M6       0.177500
     27 H3           3.2660    -0.8380     2.4860 ha         1 0M6       0.181000
     28 H4           1.3920    -0.7540     4.1370 ha         1 0M6       0.177500
     29 H5          -0.9180    -0.2630     3.3930 ha         1 0M6       0.153500
     30 H6          -2.0680    -0.4200     0.1940 hn         1 0M6       0.407500
     31 H7          -1.1880     1.9430     2.7690 hn         1 0M6       0.486800
     32 H8          -3.4940     2.5140     3.3170 hx         1 0M6       0.139700
     33 H9          -3.0080     4.7720     4.2210 hc         1 0M6       0.106200
     34 H10         -1.5650     4.9720     3.1580 hc         1 0M6       0.106200
     35 H11         -0.3600     3.1580     4.3160 hc         1 0M6       0.040700
     36 H12         -0.3860     5.4720     5.2800 hc         1 0M6       0.057533
     37 H13         -0.1730     4.1830     6.5370 hc         1 0M6       0.057533
     38 H14         -1.7760     5.0060     6.3510 hc         1 0M6       0.057533
     39 H15         -3.0110     2.7470     5.8760 hc         1 0M6       0.057533
     40 H16         -2.1480     1.5400     4.8260 hc         1 0M6       0.057533
     41 H17         -1.4070     2.0870     6.3820 hc         1 0M6       0.057533
     42 H18         -5.3340     3.9050     2.8650 hn         1 0M6       0.485800
     43 H19         -5.2450     5.8100     0.5780 hx         1 0M6       0.127700
     44 H20         -5.3790     7.6020     2.2990 h1         1 0M6       0.098200
     45 H21         -5.4730     6.3790     3.6610 h1         1 0M6       0.098200
     46 H22         -3.2490     7.1260     2.1830 ho         1 0M6       0.450000
     47 H23         -7.4560     6.6450     1.4920 hc         1 0M6       0.102200
     48 H24         -7.5150     5.2610     2.6660 hc         1 0M6       0.102200
     49 H25         -7.3710     4.9440    -0.4330 h1         1 0M6       0.071700
     50 H26         -8.9050     4.9310     0.5690 h1         1 0M6       0.071700
     51 H27         -8.2130     2.8220     0.4500 ho         1 0M6       0.460000
     52 H28         -1.1940     2.9830     1.4560 hn         1 0M6       0.486800
     53 HAQ2        -5.5540     3.4880     1.2570 hn         1 0M6       0.485800
@<TRIPOS>BOND
     1     1     2 ar  
     2     1     6 ar  
     3     1    25 1   
     4     2     3 ar  
     5     2    26 1   
     6     3     4 ar  
     7     3    27 1   
     8     4     5 ar  
     9     4    28 1   
    10     5     6 ar  
    11     5    29 1   
    12     6     7 1   
    13     7     8 1   
    14     7    30 1   
    15     8     9 2   
    16     8    10 1   
    17    10    11 1   
    18    10    31 1   
    19    10    52 1   
    20    11    12 1   
    21    11    16 1   
    22    11    32 1   
    23    12    13 1   
    24    12    33 1   
    25    12    34 1   
    26    13    14 1   
    27    13    15 1   
    28    13    35 1   
    29    14    36 1   
    30    14    37 1   
    31    14    38 1   
    32    15    39 1   
    33    15    40 1   
    34    15    41 1   
    35    16    17 2   
    36    16    18 1   
    37    18    19 1   
    38    18    42 1   
    39    18    53 1   
    40    19    20 1   
    41    19    22 1   
    42    19    43 1   
    43    20    21 1   
    44    20    44 1   
    45    20    45 1   
    46    21    46 1   
    47    22    23 1   
    48    22    47 1   
    49    22    48 1   
    50    23    24 1   
    51    23    49 1   
    52    23    50 1   
    53    24    51 1   
@<TRIPOS>SUBSTRUCTURE
     1 0M6         1 TEMP              0 ****  ****    0 ROOT
