@<TRIPOS>MOLECULE
0M7
   31    30     1     0     0
SMALL
bcc


@<TRIPOS>ATOM
      1 O11          0.0000     0.0000     0.0000 o          1 0M7      -0.784667
      2 P3           1.6110     0.0000     0.0000 p5         1 0M7       0.455700
      3 O13          2.1030     0.0000     1.3960 o          1 0M7      -0.784667
      4 O12          2.1470    -1.3150    -0.7580 o          1 0M7      -0.784667
      5 C2           2.2190     1.4880    -0.8590 c3         1 0M7       0.005900
      6 P1           1.6120     1.4880    -2.5790 p5         1 0M7       0.455700
      7 O15          0.0020     1.4880    -2.5780 o          1 0M7      -0.784667
      8 O14          2.1060     2.6950    -3.2760 o          1 0M7      -0.784667
      9 O16          2.1490     0.1730    -3.3360 o          1 0M7      -0.784667
     10 C4           1.7090     2.7370    -0.1380 c3         1 0M7       0.252800
     11 N5           0.2400     2.7380    -0.1390 n7         1 0M7      -0.560200
     12 C6          -0.2860     3.9260     0.5460 c3         1 0M7       0.147800
     13 C7          -1.8150     3.8910     0.5250 c3         1 0M7      -0.035400
     14 C8          -2.3640     5.1280     1.2390 c3         1 0M7      -0.036400
     15 C9          -3.8940     5.0940     1.2180 c3         1 0M7      -0.034400
     16 C10         -4.4420     6.3300     1.9310 c3         1 0M7       0.002900
     17 H3           3.3030     1.4880    -0.8590 hc         1 0M7      -0.016300
     18 H6           2.0690     2.7370     0.8830 h1         1 0M7      -0.083300
     19 H7           2.0700     3.6220    -0.6490 h1         1 0M7      -0.083300
     20 H8          -0.0940     1.9130     0.3190 hn         1 0M7       0.359800
     21 H10          0.0600     3.9340     1.5730 h1         1 0M7      -0.062800
     22 H11          0.0620     4.8190     0.0400 h1         1 0M7      -0.062800
     23 H12         -2.1630     2.9980     1.0310 hc         1 0M7       0.032700
     24 H13         -2.1620     3.8830    -0.5010 hc         1 0M7       0.032700
     25 H14         -2.0170     5.1360     2.2650 hc         1 0M7      -0.008800
     26 H15         -2.0160     6.0210     0.7330 hc         1 0M7      -0.008800
     27 H16         -4.2410     5.0860     0.1910 hc         1 0M7       0.012200
     28 H17         -4.2420     4.2010     1.7230 hc         1 0M7       0.012200
     29 H18         -4.0960     6.3380     2.9570 hc         1 0M7      -0.022967
     30 H19         -5.5250     6.3060     1.9160 hc         1 0M7      -0.022967
     31 H20         -4.0940     7.2230     1.4250 hc         1 0M7      -0.022967
@<TRIPOS>BOND
     1     1     2 1   
     2     2     3 1   
     3     2     4 1   
     4     2     5 1   
     5     5     6 1   
     6     5    10 1   
     7     5    17 1   
     8     6     7 1   
     9     6     8 1   
    10     6     9 1   
    11    10    11 1   
    12    10    18 1   
    13    10    19 1   
    14    11    12 1   
    15    11    20 1   
    16    12    13 1   
    17    12    21 1   
    18    12    22 1   
    19    13    14 1   
    20    13    23 1   
    21    13    24 1   
    22    14    15 1   
    23    14    25 1   
    24    14    26 1   
    25    15    16 1   
    26    15    27 1   
    27    15    28 1   
    28    16    29 1   
    29    16    30 1   
    30    16    31 1   
@<TRIPOS>SUBSTRUCTURE
     1 0M7         1 TEMP              0 ****  ****    0 ROOT
