@<TRIPOS>MOLECULE
molecule
   31    30     1     0     0
SMALL
bcc


@<TRIPOS>ATOM
      1 O11          0.0000     0.0000     0.0000 o          1 0M7      -0.953500
      2 P3           1.6110     0.0000     0.0000 p5         1 0M7       1.138200
      3 O13          2.1030     0.0000     1.3960 o          1 0M7      -0.953500
      4 O12          2.1470    -1.3150    -0.7580 o          1 0M7      -0.953500
      5 C2           2.2190     1.4880    -0.8590 c3         1 0M7      -0.407100
      6 P1           1.6120     1.4880    -2.5790 p5         1 0M7       1.138200
      7 O15          0.0020     1.4880    -2.5780 o          1 0M7      -0.953500
      8 O14          2.1060     2.6950    -3.2760 o          1 0M7      -0.953500
      9 O16          2.1490     0.1730    -3.3360 o          1 0M7      -0.953500
     10 C4           1.7090     2.7370    -0.1380 c3         1 0M7       0.244800
     11 N5           0.2400     2.7380    -0.1390 n7         1 0M7      -0.749200
     12 C6          -0.2860     3.9260     0.5460 c3         1 0M7       0.170800
     13 C7          -1.8150     3.8910     0.5250 c3         1 0M7      -0.076400
     14 C8          -2.3640     5.1280     1.2390 c3         1 0M7      -0.086400
     15 C9          -3.8940     5.0940     1.2180 c3         1 0M7      -0.085400
     16 C10         -4.4420     6.3300     1.9310 c3         1 0M7      -0.093100
     17 H3           3.3030     1.4880    -0.8590 hc         1 0M7       0.015700
     18 H6           2.0690     2.7370     0.8830 h1         1 0M7      -0.049300
     19 H7           2.0700     3.6220    -0.6490 h1         1 0M7      -0.049300
     20 H8          -0.0940     1.9130     0.3190 hn         1 0M7       0.436800
     21 H10          0.0600     3.9340     1.5730 h1         1 0M7      -0.039300
     22 H11          0.0620     4.8190     0.0400 h1         1 0M7      -0.039300
     23 H12         -2.1630     2.9980     1.0310 hc         1 0M7       0.062700
     24 H13         -2.1620     3.8830    -0.5010 hc         1 0M7       0.062700
     25 H14         -2.0170     5.1360     2.2650 hc         1 0M7       0.014200
     26 H15         -2.0160     6.0210     0.7330 hc         1 0M7       0.014200
     27 H16         -4.2410     5.0860     0.1910 hc         1 0M7       0.039700
     28 H17         -4.2420     4.2010     1.7230 hc         1 0M7       0.039700
     29 H18         -4.0960     6.3380     2.9570 hc         1 0M7       0.006367
     30 H19         -5.5250     6.3060     1.9160 hc         1 0M7       0.006367
     31 H20         -4.0940     7.2230     1.4250 hc         1 0M7       0.006367
@<TRIPOS>BOND
     1    16    15 1
     2    14    15 1
     3    14    13 1
     4    13    12 1
     5    12    11 1
     6     3     2 1
     7     4     2 1
     8    10    11 1
     9    10     5 1
    10     2     5 1
    11     2     1 1
    12     8     6 1
    13     5     6 1
    14     6     9 1
    15     6     7 1
    16     5    17 1
    17    10    18 1
    18    10    19 1
    19    11    20 1
    20    12    21 1
    21    12    22 1
    22    13    23 1
    23    13    24 1
    24    14    25 1
    25    14    26 1
    26    15    27 1
    27    15    28 1
    28    16    29 1
    29    16    30 1
    30    16    31 1
@<TRIPOS>SUBSTRUCTURE
     1 0M7         1 TEMP              0 ****  ****    0 ROOT
