@<TRIPOS>MOLECULE
molecule
   32    31     1     0     0
SMALL
bcc


@<TRIPOS>ATOM
      1 O11          0.0000     0.0000     0.0000 o          1 0M7      -0.881167
      2 P3           1.4970     0.0000     0.0000 p5         1 0M7       1.118700
      3 O13          2.0600     0.0000     1.3940 o          1 0M7      -0.881167
      4 O12          2.1160     1.0420    -0.9420 o          1 0M7      -0.881167
      5 C2           2.0280    -1.6200    -0.5910 c3         1 0M7       0.192900
      6 P1           1.4720    -1.9840    -2.2860 p5         1 0M7       1.118700
      7 O15          1.9350    -3.3540    -2.6250 o          1 0M7      -0.881167
      8 O14         -0.0240    -1.8130    -2.1860 o          1 0M7      -0.881167
      9 O16          2.2060    -0.9270    -3.0980 o          1 0M7      -0.881167
     10 C4           3.5440    -1.5550    -0.5430 c3         1 0M7      -0.030200
     11 N5           3.9930    -2.8290    -0.0010 ny         1 0M7      -1.084000
     12 C6           5.4030    -3.1510    -0.0320 c3         1 0M7       0.185800
     13 C7           5.8800    -3.2470    -1.4790 c3         1 0M7      -0.143400
     14 C8           7.3480    -2.8750    -1.5800 c3         1 0M7      -0.045400
     15 C9           8.1820    -4.1290    -1.5790 c3         1 0M7      -0.134400
     16 C10          8.7010    -4.3690    -0.1640 c3         1 0M7      -0.071100
     17 H3           1.6730    -2.3900     0.0840 hc         1 0M7       0.038700
     18 H6           3.9420    -1.4150    -1.5410 hx         1 0M7       0.019700
     19 H7           3.8610    -0.7440     0.1010 hx         1 0M7       0.019700
     20 H8           3.6990    -2.8680     0.9550 hn         1 0M7       0.380300
     21 H10          5.5660    -4.1000     0.4650 hx         1 0M7      -0.005300
     22 H11          5.9600    -2.3760     0.4810 hx         1 0M7      -0.005300
     23 H12          5.2980    -2.5710    -2.0930 hc         1 0M7       0.071700
     24 H13          5.7430    -4.2610    -1.8350 hc         1 0M7       0.071700
     25 H14          7.6240    -2.2570    -0.7350 hc         1 0M7      -0.008300
     26 H15          7.5200    -2.3280    -2.5000 hc         1 0M7      -0.008300
     27 H16          9.0170    -4.0110    -2.2580 hc         1 0M7       0.106700
     28 H17          7.5740    -4.9700    -1.8910 hc         1 0M7       0.106700
     29 H18          7.9640    -4.9240     0.4020 hc         1 0M7       0.004033
     30 H19          8.8860    -3.4170     0.3190 hc         1 0M7       0.004033
     31 H20          9.6230    -4.9350    -0.2100 hc         1 0M7       0.004033
     32 H52          3.5090    -3.5520    -0.4950 hn         1 0M7       0.380300
@<TRIPOS>BOND
     1    16    15 1   
     2    14    15 1   
     3    14    13 1   
     4    13    12 1   
     5    12    11 1   
     6     3     2 1   
     7     4     2 1   
     8    10    11 1   
     9    10     5 1   
    10     2     5 1   
    11     2     1 1   
    12     8     6 1   
    13     5     6 1   
    14     6     9 1   
    15     6     7 1   
    16     5    17 1   
    17    10    18 1   
    18    10    19 1   
    19    11    20 1   
    20    12    21 1   
    21    12    22 1   
    22    13    23 1   
    23    13    24 1   
    24    14    25 1   
    25    14    26 1   
    26    15    27 1   
    27    15    28 1   
    28    16    29 1   
    29    16    30 1   
    30    16    31 1   
    31    32    11 1   
@<TRIPOS>SUBSTRUCTURE
     1 0M7         1 TEMP              0 ****  ****    0 ROOT
