@<TRIPOS>MOLECULE
molecule
   37    36     1     0     0
SMALL
bcc


@<TRIPOS>ATOM
      1 O1           0.0000     0.0000     0.0000 o          1 0M8      -0.956000
      2 P1           1.6090     0.0000     0.0000 p5         1 0M8       1.140200
      3 O2           2.1030     0.0000     1.3960 o          1 0M8      -0.956000
      4 O3           2.1460    -1.3150    -0.7580 o          1 0M8      -0.956000
      5 C9           2.2180     1.4880    -0.8590 c3         1 0M8      -0.408100
      6 P2           1.6100     2.9760     0.0010 p5         1 0M8       1.140200
      7 O5           2.1040     4.1850    -0.6980 o          1 0M8      -0.956000
      8 O4          -0.0000     2.9770     0.0000 o          1 0M8      -0.956000
      9 O6           2.1470     2.9770     1.5180 o          1 0M8      -0.956000
     10 C8           3.7480     1.4870    -0.8590 c3         1 0M8       0.243800
     11 N1           4.2370     1.4880     0.5260 n7         1 0M8      -0.747200
     12 C7           5.7060     1.4880     0.5660 c3         1 0M8       0.168800
     13 C6           6.1770     1.4870     2.0220 c3         1 0M8      -0.077400
     14 C5           7.7060     1.4870     2.0630 c3         1 0M8      -0.086400
     15 C4           8.1770     1.4870     3.5180 c3         1 0M8      -0.082400
     16 C3           9.7060     1.4870     3.5590 c3         1 0M8      -0.084400
     17 C2          10.1780     1.4870     5.0150 c3         1 0M8      -0.086400
     18 C1          11.7080     1.4860     5.0560 c3         1 0M8      -0.092100
     19 H3           1.8570     1.4880    -1.8800 hc         1 0M8       0.018700
     20 H6           4.1080     0.6030    -1.3690 h1         1 0M8      -0.044800
     21 H7           4.1090     2.3720    -1.3700 h1         1 0M8      -0.044800
     22 H8           3.8910     0.6790     1.0030 hn         1 0M8       0.432800
     23 H10          6.0800     0.6030     0.0650 h1         1 0M8      -0.035300
     24 H11          6.0800     2.3730     0.0650 h1         1 0M8      -0.035300
     25 H12          5.8020     2.3710     2.5230 hc         1 0M8       0.061700
     26 H13          5.8020     0.6020     2.5220 hc         1 0M8       0.061700
     27 H14          8.0810     0.6030     1.5620 hc         1 0M8       0.016200
     28 H15          8.0810     2.3720     1.5630 hc         1 0M8       0.016200
     29 H16          7.8020     0.6020     4.0190 hc         1 0M8       0.041200
     30 H17          7.8020     2.3710     4.0190 hc         1 0M8       0.041200
     31 H18         10.0810     2.3710     3.0580 hc         1 0M8       0.028200
     32 H19         10.0810     0.6020     3.0590 hc         1 0M8       0.028200
     33 H20          9.8030     0.6030     5.5160 hc         1 0M8       0.037700
     34 H21          9.8040     2.3720     5.5150 hc         1 0M8       0.037700
     35 H22         12.0410     1.4870     6.0870 hc         1 0M8       0.016033
     36 H23         12.0830     2.3700     4.5550 hc         1 0M8       0.016033
     37 H24         12.0820     0.6010     4.5560 hc         1 0M8       0.016033
@<TRIPOS>BOND
     1    18    17 1   
     2    17    16 1   
     3    16    15 1   
     4    15    14 1   
     5    14    13 1   
     6    12    13 1   
     7    12    11 1   
     8     3     2 1   
     9     1     2 1   
    10    11    10 1   
    11    10     5 1   
    12     5     2 1   
    13     5     6 1   
    14     2     4 1   
    15     7     6 1   
    16     6     9 1   
    17     6     8 1   
    18     5    19 1   
    19    10    20 1   
    20    10    21 1   
    21    11    22 1   
    22    12    23 1   
    23    12    24 1   
    24    13    25 1   
    25    13    26 1   
    26    14    27 1   
    27    14    28 1   
    28    15    29 1   
    29    15    30 1   
    30    16    31 1   
    31    16    32 1   
    32    17    33 1   
    33    17    34 1   
    34    18    35 1   
    35    18    36 1   
    36    18    37 1   
@<TRIPOS>SUBSTRUCTURE
     1 0M8         1 TEMP              0 ****  ****    0 ROOT
