@<TRIPOS>MOLECULE
0M8
   38    37     1     0     0
SMALL
bcc


@<TRIPOS>ATOM
      1 O1           0.0000     0.0000     0.0000 o          1 0M8      -0.742000
      2 P1           1.6090     0.0000     0.0000 p5         1 0M8       0.478200
      3 O2           2.1460     0.0000     1.5180 o          1 0M8      -0.742000
      4 O3           2.1030     1.2090    -0.6970 o          1 0M8      -0.742000
      5 C9           2.2180    -1.4870    -0.8600 c3         1 0M8      -0.062100
      6 P2           1.6100    -1.4860    -2.5790 p5         1 0M8       0.478200
      7 O5           2.1470    -0.1720    -3.3370 o          1 0M8      -0.742000
      8 O4          -0.0000    -1.4870    -2.5790 o          1 0M8      -0.742000
      9 O6           2.1040    -2.6950    -3.2770 o          1 0M8      -0.742000
     10 C8           3.7480    -1.4870    -0.8600 c3         1 0M8       0.122800
     11 N1           4.2370    -0.2870    -1.5520 ny         1 0M8      -0.237000
     12 C7           5.7060    -0.2530    -1.5720 c3         1 0M8       0.016800
     13 C6           6.1770     1.0090    -2.2980 c3         1 0M8      -0.040400
     14 C5           7.7060     1.0440    -2.3190 c3         1 0M8      -0.027400
     15 C4           8.1770     2.3050    -3.0450 c3         1 0M8      -0.030400
     16 C3           9.7060     2.3410    -3.0660 c3         1 0M8      -0.031400
     17 C2          10.1780     3.6010    -3.7940 c3         1 0M8      -0.030400
     18 C1          11.7080     3.6370    -3.8130 c3         1 0M8       0.005900
     19 H3           1.8570    -2.3720    -0.3500 hc         1 0M8       0.039700
     20 H6           4.1080    -1.4870     0.1620 hx         1 0M8      -0.023800
     21 H7           4.1090    -2.3710    -1.3700 hx         1 0M8      -0.023800
     22 H8           3.8960     0.5270    -1.0800 hn         1 0M8       0.327300
     23 H10          6.0800    -0.2450    -0.5550 hx         1 0M8       0.012200
     24 H11          6.0800    -1.1280    -2.0880 hx         1 0M8       0.012200
     25 H12          5.8020     1.8840    -1.7820 hc         1 0M8       0.040200
     26 H13          5.8020     1.0010    -3.3150 hc         1 0M8       0.040200
     27 H14          8.0810     0.1690    -2.8360 hc         1 0M8       0.003200
     28 H15          8.0810     1.0520    -1.3030 hc         1 0M8       0.003200
     29 H16          7.8020     3.1800    -2.5290 hc         1 0M8       0.018700
     30 H17          7.8020     2.2970    -4.0620 hc         1 0M8       0.018700
     31 H18         10.0810     1.4650    -3.5820 hc         1 0M8       0.007700
     32 H19         10.0810     2.3490    -2.0500 hc         1 0M8       0.007700
     33 H20          9.8030     4.4770    -3.2780 hc         1 0M8       0.012700
     34 H21          9.8040     3.5930    -4.8100 hc         1 0M8       0.012700
     35 H22         12.0830     2.7620    -4.3290 hc         1 0M8      -0.008967
     36 H23         12.0820     3.6460    -2.7970 hc         1 0M8      -0.008967
     37 H24         12.0410     4.5300    -4.3290 hc         1 0M8      -0.008967
     38 H121         3.8960    -0.2890    -2.4930 hn         1 0M8       0.327300
@<TRIPOS>BOND
     1     1     2 1   
     2     2     3 1   
     3     2     4 1   
     4     2     5 1   
     5     5     6 1   
     6     5    10 1   
     7     5    19 1   
     8     6     7 1   
     9     6     8 1   
    10     6     9 1   
    11    10    11 1   
    12    10    20 1   
    13    10    21 1   
    14    11    12 1   
    15    11    22 1   
    16    11    38 1   
    17    12    13 1   
    18    12    23 1   
    19    12    24 1   
    20    13    14 1   
    21    13    25 1   
    22    13    26 1   
    23    14    15 1   
    24    14    27 1   
    25    14    28 1   
    26    15    16 1   
    27    15    29 1   
    28    15    30 1   
    29    16    17 1   
    30    16    31 1   
    31    16    32 1   
    32    17    18 1   
    33    17    33 1   
    34    17    34 1   
    35    18    35 1   
    36    18    36 1   
    37    18    37 1   
@<TRIPOS>SUBSTRUCTURE
     1 0M8         1 TEMP              0 ****  ****    0 ROOT
