@<TRIPOS>MOLECULE
molecule
   25    24     1     0     0
SMALL
bcc


@<TRIPOS>ATOM
      1 O1           0.0000     0.0000     0.0000 o          1 0M9      -0.958500
      2 P1           1.6090     0.0000     0.0000 p5         1 0M9       1.146200
      3 O3           2.1470     0.0000     1.5180 o          1 0M9      -0.958500
      4 O2           2.1030    -1.2090    -0.6980 o          1 0M9      -0.958500
      5 C9           2.2180     1.4880    -0.8590 c3         1 0M9      -0.409100
      6 P2           4.0400     1.4890    -0.8590 p5         1 0M9       1.146200
      7 O4           4.5770     2.8020    -1.6180 o          1 0M9      -0.958500
      8 O5           4.5770     1.4880     0.6580 o          1 0M9      -0.958500
      9 O6           4.5340     0.2800    -1.5570 o          1 0M9      -0.958500
     10 C8           1.7080     1.4890    -2.3010 c3         1 0M9       0.243800
     11 N1           2.1970     0.2900    -2.9940 n7         1 0M9      -0.755200
     12 C7           1.7260     0.2550    -4.3850 c3         1 0M9       0.168800
     13 C6           2.2550    -1.0050    -5.0730 c3         1 0M9      -0.081400
     14 C5           1.7640    -1.0390    -6.5220 c3         1 0M9      -0.095100
     15 H3           1.8570     2.3730    -0.3480 hc         1 0M9       0.019700
     16 H6           0.6240     1.4890    -2.3010 h1         1 0M9      -0.042800
     17 H7           2.0690     2.3730    -2.8120 h1         1 0M9      -0.042800
     18 H8           3.1980     0.2810    -2.9800 hn         1 0M9       0.430800
     19 H10          0.6430     0.2470    -4.3990 h1         1 0M9      -0.034300
     20 H11          2.0870     1.1320    -4.9100 h1         1 0M9      -0.034300
     21 H12          3.3380    -0.9970    -5.0580 hc         1 0M9       0.056700
     22 H13          1.8930    -1.8810    -4.5480 hc         1 0M9       0.056700
     23 H14          2.1270    -0.1640    -7.0470 hc         1 0M9      -0.008300
     24 H15          0.6810    -1.0460    -6.5360 hc         1 0M9      -0.008300
     25 H16          2.1370    -1.9330    -7.0080 hc         1 0M9      -0.008300
@<TRIPOS>BOND
     1    13    14 1   
     2    13    12 1   
     3     4     2 1   
     4    12    11 1   
     5     1     2 1   
     6    11    10 1   
     7     2     5 1   
     8     2     3 1   
     9     5    10 1   
    10     5     6 1   
    11     9     6 1   
    12     6     7 1   
    13     6     8 1   
    14     5    15 1   
    15    10    16 1   
    16    10    17 1   
    17    11    18 1   
    18    12    19 1   
    19    12    20 1   
    20    13    21 1   
    21    13    22 1   
    22    14    23 1   
    23    14    24 1   
    24    14    25 1   
@<TRIPOS>SUBSTRUCTURE
     1 0M9         1 TEMP              0 ****  ****    0 ROOT
