@<TRIPOS>MOLECULE
0M9
   25    24     1     0     0
SMALL
bcc


@<TRIPOS>ATOM
      1 O1           0.0000     0.0000     0.0000 o          1 0M9      -0.790000
      2 P1           1.6090     0.0000     0.0000 p5         1 0M9       0.463200
      3 O3           2.1470     0.0000     1.5180 o          1 0M9      -0.790000
      4 O2           2.1030    -1.2090    -0.6980 o          1 0M9      -0.790000
      5 C9           2.2180     1.4880    -0.8590 c3         1 0M9       0.003900
      6 P2           4.0400     1.4890    -0.8590 p5         1 0M9       0.463200
      7 O4           4.5770     2.8020    -1.6180 o          1 0M9      -0.790000
      8 O5           4.5770     1.4880     0.6580 o          1 0M9      -0.790000
      9 O6           4.5340     0.2800    -1.5570 o          1 0M9      -0.790000
     10 C8           1.7080     1.4890    -2.3010 c3         1 0M9       0.248800
     11 N1           2.1970     0.2900    -2.9940 n7         1 0M9      -0.561200
     12 C7           1.7260     0.2550    -4.3850 c3         1 0M9       0.143800
     13 C6           2.2550    -1.0050    -5.0730 c3         1 0M9      -0.037400
     14 C5           1.7640    -1.0390    -6.5220 c3         1 0M9       0.000900
     15 H3           1.8570     2.3730    -0.3480 hc         1 0M9      -0.011300
     16 H6           0.6240     1.4890    -2.3010 h1         1 0M9      -0.076300
     17 H7           2.0690     2.3730    -2.8120 h1         1 0M9      -0.076300
     18 H8           3.1980     0.2810    -2.9800 hn         1 0M9       0.351800
     19 H10          0.6430     0.2470    -4.3990 h1         1 0M9      -0.057800
     20 H11          2.0870     1.1320    -4.9100 h1         1 0M9      -0.057800
     21 H12          3.3380    -0.9970    -5.0580 hc         1 0M9       0.026200
     22 H13          1.8930    -1.8810    -4.5480 hc         1 0M9       0.026200
     23 H14          2.1270    -0.1640    -7.0470 hc         1 0M9      -0.036633
     24 H15          0.6810    -1.0460    -6.5360 hc         1 0M9      -0.036633
     25 H16          2.1370    -1.9330    -7.0080 hc         1 0M9      -0.036633
@<TRIPOS>BOND
     1     1     2 1   
     2     2     3 1   
     3     2     4 1   
     4     2     5 1   
     5     5     6 1   
     6     5    10 1   
     7     5    15 1   
     8     6     7 1   
     9     6     8 1   
    10     6     9 1   
    11    10    11 1   
    12    10    16 1   
    13    10    17 1   
    14    11    12 1   
    15    11    18 1   
    16    12    13 1   
    17    12    19 1   
    18    12    20 1   
    19    13    14 1   
    20    13    21 1   
    21    13    22 1   
    22    14    23 1   
    23    14    24 1   
    24    14    25 1   
@<TRIPOS>SUBSTRUCTURE
     1 0M9         1 TEMP              0 ****  ****    0 ROOT
