@<TRIPOS>MOLECULE
0MB
   34    36     1     0     0
SMALL
bcc


@<TRIPOS>ATOM
      1 NJ           0.1530     0.5000     0.0170 nc         1 0MB      -0.552100
      2 NK           0.6090    -0.1660     2.2360 nd         1 0MB      -0.735000
      3 NL           3.9810     1.4610     3.9360 n7         1 0MB      -0.834200
      4 NQ           3.0110    -0.6810     2.2700 nh         1 0MB      -0.700300
      5 CAA         -4.4570     0.5930     2.2230 ca         1 0MB      -0.116000
      6 CAC         -4.0700     0.2580     0.9250 ca         1 0MB      -0.143000
      7 CAB         -3.4880     0.8130     3.2010 ca         1 0MB      -0.143000
      8 CAE         -2.7190     0.1400     0.6030 ca         1 0MB      -0.090000
      9 CAD         -2.1340     0.6980     2.8900 ca         1 0MB      -0.090000
     10 CAF          5.3250     1.1270     3.5270 c3         1 0MB       0.167800
     11 CAG          3.2110     0.4140     4.5630 c3         1 0MB       0.139800
     12 CAI          3.0340    -0.8580     3.7070 c3         1 0MB       0.195800
     13 SAM          1.7680     0.2610    -0.0220 ss         1 0MB       0.029700
     14 CAN         -1.7450     0.3600     1.5870 ca         1 0MB      -0.121500
     15 CAO         -0.3160     0.2370     1.2470 cd         1 0MB       0.661500
     16 C9           5.4450    -0.0390     2.5470 c3         1 0MB      -0.088400
     17 CAP          1.8400    -0.2160     1.6850 cc         1 0MB       0.664300
     18 C10          4.2420    -0.2270     1.6320 c3         1 0MB       0.197800
     19 HAF1         5.7400     2.0530     3.0310 h1         1 0MB       0.029700
     20 HAF2         5.9950     0.8950     4.4100 h1         1 0MB       0.029700
     21 HAG1         2.1900     0.8470     4.7700 h1         1 0MB       0.039200
     22 HAG2         3.6490     0.0810     5.5510 h1         1 0MB       0.039200
     23 HAI1         3.8750    -1.5750     3.9310 h1         1 0MB       0.067200
     24 HAI2         2.0760    -1.3560     4.0290 h1         1 0MB       0.067200
     25 H101         4.0660     0.7450     1.0810 h1         1 0MB       0.055200
     26 H102         4.5020    -1.0170     0.8660 h1         1 0MB       0.055200
     27 HAA         -5.5240     0.6850     2.4730 ha         1 0MB       0.131000
     28 HAB         -3.7910     1.0780     4.2250 ha         1 0MB       0.132500
     29 HAC         -4.8320     0.0850     0.1510 ha         1 0MB       0.132500
     30 HAD         -1.3780     0.8730     3.6700 ha         1 0MB       0.149000
     31 HAE         -2.4240    -0.1240    -0.4240 ha         1 0MB       0.149000
     32 H91C         5.6620    -0.9860     3.1070 hc         1 0MB       0.052700
     33 H92C         6.3330     0.1580     1.8870 hc         1 0MB       0.052700
     34 HL           3.9950     2.2730     4.5230 hn         1 0MB       0.373800
@<TRIPOS>BOND
     1     1    13 1   
     2     1    15 2   
     3     2    15 1   
     4     2    17 2   
     5     3    10 1   
     6     3    11 1   
     7     3    34 1   
     8     4    12 1   
     9     4    17 1   
    10     4    18 1   
    11     5     6 ar  
    12     5     7 ar  
    13     5    27 1   
    14     6     8 ar  
    15     6    29 1   
    16     7     9 ar  
    17     7    28 1   
    18     8    14 ar  
    19     8    31 1   
    20     9    14 ar  
    21     9    30 1   
    22    10    16 1   
    23    10    19 1   
    24    10    20 1   
    25    11    12 1   
    26    11    21 1   
    27    11    22 1   
    28    12    23 1   
    29    12    24 1   
    30    13    17 1   
    31    14    15 1   
    32    16    18 1   
    33    16    32 1   
    34    16    33 1   
    35    18    25 1   
    36    18    26 1   
@<TRIPOS>SUBSTRUCTURE
     1 0MB         1 TEMP              0 ****  ****    0 ROOT
