@<TRIPOS>MOLECULE
molecule
   34    36     1     0     0
SMALL
bcc


@<TRIPOS>ATOM
      1 NJ           0.0000     0.0000     0.0000 nc         1 0MB      -0.505100
      2 NK           0.6050    -0.0010     2.1640 nd         1 0MB      -0.765000
      3 NL           5.0420     0.1120     4.4290 n7         1 0MB      -0.800200
      4 NQ           3.0050    -0.0010     2.4620 nh         1 0MB      -0.651300
      5 CAA         -4.4540     0.0000     2.3950 ca         1 0MB      -0.113000
      6 CAC         -4.1100     0.0000     1.0550 ca         1 0MB      -0.141500
      7 CAB         -3.4700    -0.0000     3.3670 ca         1 0MB      -0.141500
      8 CAE         -2.7810     0.0010     0.6810 ca         1 0MB      -0.088000
      9 CAD         -2.1380     0.0000     3.0040 ca         1 0MB      -0.088000
     10 CAF          5.9310    -0.3670     3.3450 c3         1 0MB       0.158800
     11 CAG          4.4180     1.3540     4.0420 c3         1 0MB       0.151800
     12 CAI          3.0360     1.1470     3.4000 c3         1 0MB       0.190800
     13 SAM          1.6980     0.0000     0.0000 ss         1 0MB      -0.049300
     14 CAN         -1.7860     0.0010     1.6560 ca         1 0MB      -0.128500
     15 CAO         -0.3560    -0.0000     1.2600 cd         1 0MB       0.686500
     16 C9           5.1890    -1.0400     2.2810 c3         1 0MB      -0.076400
     17 CAP          1.8400     0.0000     1.7160 cc         1 0MB       0.668300
     18 C10          4.1650    -0.1010     1.6110 c3         1 0MB       0.163800
     19 HAF1         6.6500    -1.0610     3.7630 h1         1 0MB       0.031200
     20 HAF2         6.4560     0.4810     2.9230 h1         1 0MB       0.031200
     21 HAG1         5.0610     1.8600     3.3320 h1         1 0MB       0.034700
     22 HAG2         4.3040     1.9750     4.9230 h1         1 0MB       0.034700
     23 HAI1         2.7660     2.0450     2.8590 h1         1 0MB       0.057200
     24 HAI2         2.3100     0.9730     4.1850 h1         1 0MB       0.057200
     25 H101         4.6040     0.8800     1.4790 h1         1 0MB       0.048700
     26 H102         3.8750    -0.5080     0.6490 h1         1 0MB       0.048700
     27 HAA         -5.4980     0.0000     2.6840 ha         1 0MB       0.129000
     28 HAB         -3.7440    -0.0000     4.4150 ha         1 0MB       0.132500
     29 HAC         -4.8850     0.0010     0.2980 ha         1 0MB       0.132500
     30 HAD         -1.3680    -0.0000     3.7660 ha         1 0MB       0.152500
     31 HAE         -2.5130     0.0010    -0.3690 ha         1 0MB       0.152500
     32 H91C         4.6650    -1.8890     2.7010 hc         1 0MB       0.063700
     33 H92C         5.8900    -1.3880     1.5310 hc         1 0MB       0.063700
     34 HL           5.5780     0.2530     5.2620 hn         1 0MB       0.358800
@<TRIPOS>BOND
     1     1    13 1
     2     1    15 2
     3     2    15 1
     4     2    17 2
     5     3    10 1
     6     3    11 1
     7     4    12 1
     8     4    17 1
     9     4    18 1
    10     5     7 ar
    11     5     6 ar
    12     7     9 ar
    13     6     8 ar
    14     9    14 ar
    15     8    14 ar
    16    10    16 1
    17    11    12 1
    18    13    17 1
    19    14    15 1
    20    16    18 1
    21     3    34 1
    22    10    19 1
    23    10    20 1
    24    11    21 1
    25    11    22 1
    26    12    23 1
    27    12    24 1
    28    18    25 1
    29    18    26 1
    30     5    27 1
    31     7    28 1
    32     6    29 1
    33     9    30 1
    34     8    31 1
    35    16    32 1
    36    16    33 1
@<TRIPOS>SUBSTRUCTURE
     1 0MB         1 TEMP              0 ****  ****    0 ROOT
