@<TRIPOS>MOLECULE
0MC
   90    93     1     0     0
SMALL
bcc


@<TRIPOS>ATOM
      1 CAA         -0.6040    -0.4600     1.1130 c3         1 0MC      -0.088100
      2 CAQ          0.8050    -0.0010     0.8420 c3         1 0MC      -0.077400
      3 CBQ          1.6670     0.0120     2.0960 c3         1 0MC      -0.038700
      4 CAX          1.2000     1.0790     3.0770 c3         1 0MC      -0.074400
      5 CAS          2.0690     1.1260     4.3160 c3         1 0MC      -0.078400
      6 CAU          3.5130     1.3940     3.9510 c3         1 0MC      -0.083400
      7 CBB          4.0260     0.3510     2.9840 c3         1 0MC      -0.107400
      8 CBT          3.1470     0.2420     1.7290 c3         1 0MC       0.080800
      9 OAI          3.2010     1.4350     0.9580 oh         1 0MC      -0.574800
     10 CBJ          3.7120    -0.9020     0.8820 c          1 0MC       0.491100
     11 OAG          4.4100    -0.6860    -0.1100 o          1 0MC      -0.505100
     12 CBI          3.3810    -2.3340     1.2840 c          1 0MC       0.585100
     13 OAF          2.2890    -2.8340     0.9470 o          1 0MC      -0.592100
     14 N            4.3230    -3.0710     1.9790 n          1 0MC      -0.448800
     15 CBA          5.5920    -2.5260     2.4160 c3         1 0MC       0.081000
     16 CAT          6.7670    -3.4710     2.1600 c3         1 0MC      -0.090400
     17 CAR          6.4860    -4.8430     2.7320 c3         1 0MC      -0.084400
     18 CB           5.1800    -5.3920     2.2010 c3         1 0MC      -0.084400
     19 CA           4.0100    -4.4130     2.4230 c3         1 0MC       0.063700
     20 C            3.5780    -4.5470     3.8880 c          1 0MC       0.622100
     21 O            3.0480    -5.5610     4.3580 o          1 0MC      -0.580000
     22 OBF          3.8180    -3.4800     4.6870 os         1 0MC      -0.422900
     23 CBP          3.4690    -3.5770     6.0960 c3         1 0MC       0.197400
     24 CAZ          2.0230    -3.1100     6.2600 c3         1 0MC      -0.093400
     25 CAV          1.4910    -3.4070     7.6480 c3         1 0MC      -0.035100
     26 CBK          0.6620    -4.6400     7.7500 ca         1 0MC      -0.068300
     27 CAO          0.9100    -5.7570     6.9420 ca         1 0MC      -0.182000
     28 CAM         -0.3670    -4.6920     8.6940 ca         1 0MC      -0.137000
     29 CAN         -1.1480    -5.8390     8.8400 ca         1 0MC      -0.178000
     30 CBN         -0.9080    -6.9530     8.0360 ca         1 0MC       0.083100
     31 OBC         -1.6210    -8.1380     8.0910 os         1 0MC      -0.307900
     32 CAB         -2.6500    -8.1930     9.0690 c3         1 0MC       0.113700
     33 CBO          0.1340    -6.9090     7.0740 ca         1 0MC       0.108100
     34 OBD          0.3030    -8.0560     6.3230 os         1 0MC      -0.316900
     35 CAC          1.3130    -7.9960     5.3200 c3         1 0MC       0.111700
     36 CBM          4.4410    -2.6990     6.8230 ca         1 0MC      -0.090300
     37 CAP          4.6780    -1.3990     6.3800 ca         1 0MC      -0.169000
     38 CAL          5.0980    -3.1850     7.9590 ca         1 0MC      -0.180000
     39 CAJ          5.9730    -2.3530     8.6580 ca         1 0MC      -0.106000
     40 CAK          6.2260    -1.0520     8.2330 ca         1 0MC      -0.179000
     41 CBL          5.5840    -0.5760     7.0770 ca         1 0MC       0.153100
     42 OBE          5.7600     0.6690     6.5310 os         1 0MC      -0.333900
     43 CAW          6.8150     1.4850     7.0610 c3         1 0MC      -0.002600
     44 CBG          6.4940     2.1220     8.4350 c          1 0MC       0.896600
     45 OAH          7.0950     1.6430     9.4400 o          1 0MC      -0.823300
     46 OAD          5.7050     3.1010     8.4620 o          1 0MC      -0.823300
     47 H1          -0.6040    -1.4550     1.6200 hc         1 0MC       0.031367
     48 H2          -1.1640    -0.5560     0.1500 hc         1 0MC       0.031367
     49 H3          -1.1480     0.2680     1.7620 hc         1 0MC       0.031367
     50 H4           0.7990     1.0260     0.3900 hc         1 0MC       0.051200
     51 H5           1.2780    -0.6970     0.0960 hc         1 0MC       0.051200
     52 H6           1.6050    -0.9960     2.5950 hc         1 0MC       0.062700
     53 H7           0.1400     0.8630     3.3700 hc         1 0MC       0.047700
     54 H8           1.2220     2.0770     2.5640 hc         1 0MC       0.047700
     55 H9           1.7020     1.9330     5.0020 hc         1 0MC       0.046700
     56 H10          1.9960     0.1530     4.8710 hc         1 0MC       0.046700
     57 H11          3.5990     2.4100     3.4820 hc         1 0MC       0.071700
     58 H12          4.1510     1.3840     4.8780 hc         1 0MC       0.071700
     59 H13          4.0470    -0.6500     3.4900 hc         1 0MC       0.053200
     60 H14          5.0730     0.6090     2.6760 hc         1 0MC       0.053200
     61 H15          4.1270     1.5810     0.7250 ho         1 0MC       0.410000
     62 H16          5.7860    -1.5510     1.8860 h1         1 0MC       0.068700
     63 H17          5.5270    -2.3210     3.5280 h1         1 0MC       0.068700
     64 H18          6.9660    -3.5490     1.0600 hc         1 0MC       0.053700
     65 H19          7.6770    -3.0300     2.6440 hc         1 0MC       0.053700
     66 H20          7.3210    -5.5430     2.4710 hc         1 0MC       0.052200
     67 H21          6.4350    -4.7760     3.8520 hc         1 0MC       0.052200
     68 H22          5.2700    -5.5890     1.1010 hc         1 0MC       0.062200
     69 H23          4.9280    -6.3590     2.7070 hc         1 0MC       0.062200
     70 H24          3.1160    -4.7820     1.8260 h1         1 0MC       0.116700
     71 H25          3.5760    -4.6490     6.4250 h1         1 0MC       0.071700
     72 H26          1.9850    -2.0030     6.0730 hc         1 0MC       0.059200
     73 H27          1.3920    -3.6060     5.4770 hc         1 0MC       0.059200
     74 H28          0.8770    -2.5280     7.9880 hc         1 0MC       0.062200
     75 H29          2.3530    -3.4950     8.3680 hc         1 0MC       0.062200
     76 H30          1.7200    -5.7200     6.1950 ha         1 0MC       0.169000
     77 H31         -0.5680    -3.8200     9.3340 ha         1 0MC       0.133000
     78 H32         -1.9500    -5.8530     9.5910 ha         1 0MC       0.131000
     79 H33         -3.0740    -9.2210     8.9440 h1         1 0MC       0.037700
     80 H34         -2.2310    -8.0630    10.0970 h1         1 0MC       0.037700
     81 H35         -3.4310    -7.4200     8.8680 h1         1 0MC       0.037700
     82 H36          1.1090    -7.1740     4.5900 h1         1 0MC       0.047033
     83 H37          1.2420    -8.9970     4.8240 h1         1 0MC       0.047033
     84 H38          2.3210    -7.8530     5.7800 h1         1 0MC       0.047033
     85 H39          4.1570    -1.0050     5.4950 ha         1 0MC       0.138000
     86 H40          4.9150    -4.2110     8.3070 ha         1 0MC       0.118000
     87 H41          6.4690    -2.7270     9.5660 ha         1 0MC       0.125000
     88 H42          6.8860    -0.3790     8.8160 ha         1 0MC       0.212000
     89 H43          7.7620     0.8900     7.1100 h1         1 0MC       0.036700
     90 H44          6.8940     2.2910     6.2840 h1         1 0MC       0.036700
@<TRIPOS>BOND
     1     1     2 1   
     2     1    47 1   
     3     1    48 1   
     4     1    49 1   
     5     2     3 1   
     6     2    50 1   
     7     2    51 1   
     8     3     4 1   
     9     3     8 1   
    10     3    52 1   
    11     4     5 1   
    12     4    53 1   
    13     4    54 1   
    14     5     6 1   
    15     5    55 1   
    16     5    56 1   
    17     6     7 1   
    18     6    57 1   
    19     6    58 1   
    20     7     8 1   
    21     7    59 1   
    22     7    60 1   
    23     8     9 1   
    24     8    10 1   
    25     9    61 1   
    26    10    11 2   
    27    10    12 1   
    28    12    13 2   
    29    12    14 1   
    30    14    15 1   
    31    14    19 1   
    32    15    16 1   
    33    15    62 1   
    34    15    63 1   
    35    16    17 1   
    36    16    64 1   
    37    16    65 1   
    38    17    18 1   
    39    17    66 1   
    40    17    67 1   
    41    18    19 1   
    42    18    68 1   
    43    18    69 1   
    44    19    20 1   
    45    19    70 1   
    46    20    21 2   
    47    20    22 1   
    48    22    23 1   
    49    23    24 1   
    50    23    36 1   
    51    23    71 1   
    52    24    25 1   
    53    24    72 1   
    54    24    73 1   
    55    25    26 1   
    56    25    74 1   
    57    25    75 1   
    58    26    27 ar  
    59    26    28 ar  
    60    27    33 ar  
    61    27    76 1   
    62    28    29 ar  
    63    28    77 1   
    64    29    30 ar  
    65    29    78 1   
    66    30    31 1   
    67    30    33 ar  
    68    31    32 1   
    69    32    79 1   
    70    32    80 1   
    71    32    81 1   
    72    33    34 1   
    73    34    35 1   
    74    35    82 1   
    75    35    83 1   
    76    35    84 1   
    77    36    37 ar  
    78    36    38 ar  
    79    37    41 ar  
    80    37    85 1   
    81    38    39 ar  
    82    38    86 1   
    83    39    40 ar  
    84    39    87 1   
    85    40    41 ar  
    86    40    88 1   
    87    41    42 1   
    88    42    43 1   
    89    43    44 1   
    90    43    89 1   
    91    43    90 1   
    92    44    45 1   
    93    44    46 1   
@<TRIPOS>SUBSTRUCTURE
     1 0MC         1 TEMP              0 ****  ****    0 ROOT
