@<TRIPOS>MOLECULE
0MC
   90    93     1     0     0
SMALL
bcc


@<TRIPOS>ATOM
      1 CAA          0.0000     0.0000     0.0000 c3         1 0MC       0.008900
      2 CAQ          1.5310     0.0000     0.0000 c3         1 0MC      -0.044400
      3 CBQ          2.0400     0.0000     1.4430 c3         1 0MC      -0.077700
      4 CAX          1.6350     1.3080     2.1260 c3         1 0MC      -0.025400
      5 CAS          2.1440     1.3080     3.5690 c3         1 0MC      -0.024400
      6 CAU          3.6690     1.1820     3.5710 c3         1 0MC      -0.023400
      7 CBB          4.0740    -0.1260     2.8880 c3         1 0MC      -0.021400
      8 CBT          3.5640    -0.1260     1.4450 c3         1 0MC       0.096800
      9 OAI          4.1350     0.9780     0.7380 oh         1 0MC      -0.533800
     10 CBJ          3.9640    -1.4140     0.7720 c          1 0MC       0.536100
     11 OAG          3.1920    -2.3430     0.7400 o          1 0MC      -0.546100
     12 CBI          5.3110    -1.5410     0.1450 c          1 0MC       0.469100
     13 OAF          6.1410    -0.6720     0.3090 o          1 0MC      -0.541100
     14 N            5.6060    -2.6220    -0.6040 n          1 0MC      -0.124800
     15 CBA          4.5670    -3.6050    -0.9430 c3         1 0MC      -0.017000
     16 CAT          4.5430    -3.7940    -2.4620 c3         1 0MC      -0.038400
     17 CAR          5.9440    -4.1700    -2.9470 c3         1 0MC      -0.027400
     18 CB           6.9210    -3.0380    -2.6160 c3         1 0MC      -0.037400
     19 CA           6.9700    -2.8370    -1.1040 c3         1 0MC      -0.013300
     20 C            7.8210    -1.6350    -0.7840 c          1 0MC       0.699100
     21 O            7.5980    -0.5770    -1.3230 o          1 0MC      -0.549000
     22 OBF          8.8250    -1.7380     0.1000 os         1 0MC      -0.409900
     23 CBP          9.6020    -0.5400     0.3590 c3         1 0MC       0.249400
     24 CAZ         11.0360    -0.9310     0.7260 c3         1 0MC      -0.032400
     25 CAV         11.7060    -1.5950    -0.4770 c3         1 0MC       0.026900
     26 CBK         13.1180    -1.9800    -0.1170 ca         1 0MC      -0.079300
     27 CAO         13.3770    -3.2270     0.4230 ca         1 0MC      -0.174000
     28 CAM         14.1520    -1.0880    -0.3320 ca         1 0MC      -0.093000
     29 CAN         15.4490    -1.4370    -0.0030 ca         1 0MC      -0.174000
     30 CBN         15.7140    -2.6820     0.5440 ca         1 0MC       0.107100
     31 OBC         16.9900    -3.0260     0.8680 os         1 0MC      -0.297900
     32 CAB         18.0070    -2.0550     0.6180 c3         1 0MC       0.241700
     33 CBO         14.6730    -3.5820     0.7550 ca         1 0MC       0.115100
     34 OBD         14.9300    -4.8070     1.2880 os         1 0MC      -0.297900
     35 CAC         13.8130    -5.6790     1.4760 c3         1 0MC       0.240700
     36 CBM          8.9820     0.2230     1.5010 ca         1 0MC      -0.087300
     37 CAP          8.9150     1.6020     1.4540 ca         1 0MC      -0.125000
     38 CAL          8.4760    -0.4580     2.5930 ca         1 0MC      -0.154000
     39 CAJ          7.9060     0.2390     3.6430 ca         1 0MC      -0.075000
     40 CAK          7.8420     1.6190     3.6020 ca         1 0MC      -0.217000
     41 CBL          8.3430     2.3030     2.5060 ca         1 0MC       0.177100
     42 OBE          8.2830     3.6610     2.4640 os         1 0MC      -0.257900
     43 CAW          7.6870     4.3180     3.5850 c3         1 0MC       0.082400
     44 CBG          7.7070     5.8080     3.3630 c          1 0MC       0.975600
     45 OAH          8.1830     6.2610     2.3480 o          1 0MC      -0.884800
     46 OAD          7.1960     6.6320     4.2910 o          1 0MC      -0.884800
     47 H1          -0.3610    -0.4300    -0.9260 hc         1 0MC       0.001367
     48 H2          -0.3610     1.0170     0.0900 hc         1 0MC       0.001367
     49 H3          -0.3610    -0.5870     0.8360 hc         1 0MC       0.001367
     50 H4           1.8920     0.8840    -0.5110 hc         1 0MC       0.017200
     51 H5           1.8920    -0.8850    -0.5110 hc         1 0MC       0.017200
     52 H6           1.6100    -0.8350     1.9830 hc         1 0MC       0.047700
     53 H7           2.0710     2.1430     1.5910 hc         1 0MC       0.025200
     54 H8           0.5560     1.3950     2.1260 hc         1 0MC       0.025200
     55 H9           1.7130     0.4700     4.1030 hc         1 0MC       0.010200
     56 H10          1.8590     2.2360     4.0500 hc         1 0MC       0.010200
     57 H11          4.1000     2.0180     3.0330 hc         1 0MC       0.034200
     58 H12          4.0280     1.1800     4.5930 hc         1 0MC       0.034200
     59 H13          5.1540    -0.2120     2.8880 hc         1 0MC       0.031200
     60 H14          3.6400    -0.9620     3.4230 hc         1 0MC       0.031200
     61 H15          3.8530     0.9550    -0.1610 ho         1 0MC       0.389000
     62 H16          3.6020    -3.2430    -0.6070 h1         1 0MC       0.058700
     63 H17          4.7930    -4.5500    -0.4640 h1         1 0MC       0.058700
     64 H18          3.8500    -4.5870    -2.7160 hc         1 0MC       0.020700
     65 H19          4.2330    -2.8710    -2.9360 hc         1 0MC       0.020700
     66 H20          6.2650    -5.0780    -2.4510 hc         1 0MC       0.014200
     67 H21          5.9240    -4.3260    -4.0190 hc         1 0MC       0.014200
     68 H22          7.9090    -3.2990    -2.9770 hc         1 0MC       0.034700
     69 H23          6.5870    -2.1240    -3.0910 hc         1 0MC       0.034700
     70 H24          7.3900    -3.7190    -0.6360 h1         1 0MC       0.035700
     71 H25          9.6130     0.0820    -0.5270 h1         1 0MC       0.044700
     72 H26         11.5920    -0.0440     1.0060 hc         1 0MC       0.033200
     73 H27         11.0190    -1.6240     1.5590 hc         1 0MC       0.033200
     74 H28         11.7220    -0.9030    -1.3100 hc         1 0MC       0.019200
     75 H29         11.1500    -2.4820    -0.7560 hc         1 0MC       0.019200
     76 H30         12.5680    -3.9340     0.5660 ha         1 0MC       0.125000
     77 H31         13.9510    -0.1300    -0.7950 ha         1 0MC       0.111000
     78 H32         16.2580    -0.7380    -0.1730 ha         1 0MC       0.119000
     79 H33         18.0300    -1.8190    -0.4390 h1         1 0MC      -0.004967
     80 H34         17.7950    -1.1560     1.1840 h1         1 0MC      -0.004967
     81 H35         18.9680    -2.4540     0.9200 h1         1 0MC      -0.004967
     82 H36         13.1050    -5.2180     2.1540 h1         1 0MC      -0.004300
     83 H37         14.1550    -6.6180     1.8950 h1         1 0MC      -0.004300
     84 H38         13.3340    -5.8630     0.5220 h1         1 0MC      -0.004300
     85 H39          9.3070     2.1340     0.5960 ha         1 0MC       0.119000
     86 H40          8.5250    -1.5390     2.6260 ha         1 0MC       0.097000
     87 H41          7.5120    -0.2960     4.4980 ha         1 0MC       0.085000
     88 H42          7.3950     2.1650     4.4240 ha         1 0MC       0.129000
     89 H43          8.2450     4.0790     4.4820 h1         1 0MC      -0.004800
     90 H44          6.6630     3.9830     3.6970 h1         1 0MC      -0.004800
@<TRIPOS>BOND
     1     1     2 1
     2     1    47 1
     3     1    48 1
     4     1    49 1
     5     2     3 1
     6     2    50 1
     7     2    51 1
     8     3     4 1
     9     3     8 1
    10     3    52 1
    11     4     5 1
    12     4    53 1
    13     4    54 1
    14     5     6 1
    15     5    55 1
    16     5    56 1
    17     6     7 1
    18     6    57 1
    19     6    58 1
    20     7     8 1
    21     7    59 1
    22     7    60 1
    23     8     9 1
    24     8    10 1
    25     9    61 1
    26    10    11 2
    27    10    12 1
    28    12    13 2
    29    12    14 1
    30    14    15 1
    31    14    19 1
    32    15    16 1
    33    15    62 1
    34    15    63 1
    35    16    17 1
    36    16    64 1
    37    16    65 1
    38    17    18 1
    39    17    66 1
    40    17    67 1
    41    18    19 1
    42    18    68 1
    43    18    69 1
    44    19    20 1
    45    19    70 1
    46    20    21 2
    47    20    22 1
    48    22    23 1
    49    23    24 1
    50    23    36 1
    51    23    71 1
    52    24    25 1
    53    24    72 1
    54    24    73 1
    55    25    26 1
    56    25    74 1
    57    25    75 1
    58    26    27 ar
    59    26    28 ar
    60    27    33 ar
    61    27    76 1
    62    28    29 ar
    63    28    77 1
    64    29    30 ar
    65    29    78 1
    66    30    31 1
    67    30    33 ar
    68    31    32 1
    69    32    79 1
    70    32    80 1
    71    32    81 1
    72    33    34 1
    73    34    35 1
    74    35    82 1
    75    35    83 1
    76    35    84 1
    77    36    37 ar
    78    36    38 ar
    79    37    41 ar
    80    37    85 1
    81    38    39 ar
    82    38    86 1
    83    39    40 ar
    84    39    87 1
    85    40    41 ar
    86    40    88 1
    87    41    42 1
    88    42    43 1
    89    43    44 1
    90    43    89 1
    91    43    90 1
    92    44    45 1
    93    44    46 1
@<TRIPOS>SUBSTRUCTURE
     1 0MC         1 TEMP              0 ****  ****    0 ROOT
