@<TRIPOS>MOLECULE
0MD
   90    93     1     0     0
SMALL
bcc


@<TRIPOS>ATOM
      1 CAA         -0.0280    -0.4920     0.0320 c3         1 0MD      -0.086100
      2 CAQ          1.4520    -0.7160    -0.1480 c3         1 0MD      -0.097400
      3 CBQ          2.1710    -0.8700     1.1860 c3         1 0MD      -0.083700
      4 CAX          2.0340    -2.2940     1.7070 c3         1 0MD      -0.071400
      5 CAS          2.7240    -2.4750     3.0430 c3         1 0MD      -0.074400
      6 CAU          4.1890    -2.1090     2.9390 c3         1 0MD      -0.093400
      7 CBB          4.3510    -0.6880     2.4480 c3         1 0MD      -0.062400
      8 CBT          3.6630    -0.4850     1.0860 c3         1 0MD       0.078800
      9 OAI          4.3710    -1.2710     0.1410 oh         1 0MD      -0.577800
     10 CBJ          3.7760     0.9910     0.6980 c          1 0MD       0.496100
     11 OAG          3.3050     1.9190     1.3510 o          1 0MD      -0.501100
     12 CBI          4.4900     1.2430    -0.6310 c          1 0MD       0.581100
     13 OAF          3.9220     0.9000    -1.6890 o          1 0MD      -0.617100
     14 N            5.7240     1.8710    -0.6430 n          1 0MD      -0.428800
     15 CBA          6.4550     2.1250     0.5850 c3         1 0MD       0.071000
     16 CAT          7.3360     3.3720     0.5060 c3         1 0MD      -0.084400
     17 CAR          8.2280     3.3250    -0.7160 c3         1 0MD      -0.085400
     18 CB           7.4040     3.1340    -1.9710 c3         1 0MD      -0.079400
     19 CA           6.4910     1.8990    -1.8740 c3         1 0MD       0.059700
     20 C            7.3550     0.6590    -2.1480 c          1 0MD       0.623100
     21 O            7.8250     0.3570    -3.2510 o          1 0MD      -0.581000
     22 OBF          7.6100    -0.1090    -1.0660 os         1 0MD      -0.423900
     23 CBP          8.2210    -1.4170    -1.2320 c3         1 0MD       0.207400
     24 CAZ          7.1640    -2.3710    -1.7900 c3         1 0MD      -0.104400
     25 CAV          7.7430    -3.7180    -2.1640 c3         1 0MD      -0.036100
     26 CBK          8.2860    -3.8350    -3.5470 ca         1 0MD      -0.064300
     27 CAO          8.5650    -2.7180    -4.3420 ca         1 0MD      -0.183000
     28 CAM          8.5380    -5.1140    -4.0540 ca         1 0MD      -0.141000
     29 CAN          9.0590    -5.2890    -5.3360 ca         1 0MD      -0.177000
     30 CBN          9.3350    -4.1780    -6.1330 ca         1 0MD       0.080100
     31 OBC          9.8420    -4.2340    -7.4200 os         1 0MD      -0.308900
     32 CAB         10.1670    -5.5320    -7.8970 c3         1 0MD       0.113700
     33 CBO          9.0840    -2.8770    -5.6280 ca         1 0MD       0.107100
     34 OBD          9.3880    -1.8340    -6.4810 os         1 0MD      -0.317900
     35 CAC          9.0920    -0.5280    -5.9940 c3         1 0MD       0.111700
     36 CBM          8.6550    -1.8100     0.1510 ca         1 0MD      -0.083300
     37 CAP          7.8640    -1.4380     1.2360 ca         1 0MD      -0.160000
     38 CAL          9.8220    -2.5540     0.3540 ca         1 0MD      -0.182000
     39 CAJ         10.1600    -2.9590     1.6450 ca         1 0MD      -0.106000
     40 CAK          9.3870    -2.5960     2.7450 ca         1 0MD      -0.180000
     41 CBL          8.2540    -1.7920     2.5420 ca         1 0MD       0.155100
     42 OBE          7.4610    -1.2650     3.5300 os         1 0MD      -0.333900
     43 CAW          7.7600    -1.6210     4.8860 c3         1 0MD      -0.003600
     44 CBG          7.3900    -3.0840     5.2240 c          1 0MD       0.896600
     45 OAH          8.3460    -3.8830     5.4240 o          1 0MD      -0.826300
     46 OAD          6.1660    -3.3720     5.3120 o          1 0MD      -0.826300
     47 H1          -0.5260    -0.4020    -0.9640 hc         1 0MD       0.031033
     48 H2          -0.2180     0.4470     0.6070 hc         1 0MD       0.031033
     49 H3          -0.4940    -1.3420     0.5860 hc         1 0MD       0.031033
     50 H4           1.8910     0.1490    -0.7170 hc         1 0MD       0.049200
     51 H5           1.6170    -1.6350    -0.7720 hc         1 0MD       0.049200
     52 H6           1.7110    -0.1620     1.9330 hc         1 0MD       0.068700
     53 H7           2.4860    -2.9990     0.9600 hc         1 0MD       0.038200
     54 H8           0.9450    -2.5440     1.8000 hc         1 0MD       0.038200
     55 H9           2.2250    -1.8360     3.8170 hc         1 0MD       0.040700
     56 H10          2.6290    -3.5420     3.3730 hc         1 0MD       0.040700
     57 H11          4.6980    -2.8030     2.2190 hc         1 0MD       0.093200
     58 H12          4.7100    -2.2370     3.9310 hc         1 0MD       0.093200
     59 H13          3.8910     0.0340     3.1720 hc         1 0MD       0.062200
     60 H14          5.4440    -0.4520     2.3590 hc         1 0MD       0.062200
     61 H15          3.8450    -1.2930    -0.6710 ho         1 0MD       0.412000
     62 H16          5.7220     2.2550     1.4300 h1         1 0MD       0.074200
     63 H17          7.1100     1.2300     0.8150 h1         1 0MD       0.074200
     64 H18          6.6980     4.2930     0.4760 hc         1 0MD       0.051700
     65 H19          7.9580     3.4140     1.4370 hc         1 0MD       0.051700
     66 H20          8.9550     2.4750    -0.6140 hc         1 0MD       0.050200
     67 H21          8.8200     4.2730    -0.7950 hc         1 0MD       0.050200
     68 H22          8.0730     3.0050    -2.8620 hc         1 0MD       0.059200
     69 H23          6.7630     4.0370    -2.1450 hc         1 0MD       0.059200
     70 H24          5.7530     1.9260    -2.7370 h1         1 0MD       0.111700
     71 H25          9.0950    -1.3230    -1.9310 h1         1 0MD       0.066700
     72 H26          6.6720    -1.8910    -2.6760 hc         1 0MD       0.067200
     73 H27          6.3710    -2.5080    -1.0030 hc         1 0MD       0.067200
     74 H28          6.9370    -4.4930    -2.0370 hc         1 0MD       0.062700
     75 H29          8.5630    -3.9810    -1.4370 hc         1 0MD       0.062700
     76 H30          8.3730    -1.7040    -3.9520 ha         1 0MD       0.172000
     77 H31          8.3230    -5.9970    -3.4340 ha         1 0MD       0.132000
     78 H32          9.2460    -6.3060    -5.7080 ha         1 0MD       0.130000
     79 H33         10.5870    -5.3380    -8.9160 h1         1 0MD       0.037033
     80 H34         10.9310    -6.0180    -7.2430 h1         1 0MD       0.037033
     81 H35          9.2520    -6.1700    -7.9660 h1         1 0MD       0.037033
     82 H36          8.0040    -0.4230    -5.7610 h1         1 0MD       0.047033
     83 H37          9.6970    -0.2970    -5.0830 h1         1 0MD       0.047033
     84 H38          9.3850     0.1360    -6.8460 h1         1 0MD       0.047033
     85 H39          6.9250    -0.8880     1.0750 ha         1 0MD       0.150000
     86 H40         10.4580    -2.8300    -0.4980 ha         1 0MD       0.118000
     87 H41         11.0530    -3.5840     1.8000 ha         1 0MD       0.122000
     88 H42          9.6170    -2.9770     3.7580 ha         1 0MD       0.196000
     89 H43          7.1000    -0.9190     5.4610 h1         1 0MD       0.036200
     90 H44          8.8370    -1.4130     5.1040 h1         1 0MD       0.036200
@<TRIPOS>BOND
     1     1     2 1   
     2     1    47 1   
     3     1    48 1   
     4     1    49 1   
     5     2     3 1   
     6     2    50 1   
     7     2    51 1   
     8     3     4 1   
     9     3     8 1   
    10     3    52 1   
    11     4     5 1   
    12     4    53 1   
    13     4    54 1   
    14     5     6 1   
    15     5    55 1   
    16     5    56 1   
    17     6     7 1   
    18     6    57 1   
    19     6    58 1   
    20     7     8 1   
    21     7    59 1   
    22     7    60 1   
    23     8     9 1   
    24     8    10 1   
    25     9    61 1   
    26    10    11 2   
    27    10    12 1   
    28    12    13 2   
    29    12    14 1   
    30    14    15 1   
    31    14    19 1   
    32    15    16 1   
    33    15    62 1   
    34    15    63 1   
    35    16    17 1   
    36    16    64 1   
    37    16    65 1   
    38    17    18 1   
    39    17    66 1   
    40    17    67 1   
    41    18    19 1   
    42    18    68 1   
    43    18    69 1   
    44    19    20 1   
    45    19    70 1   
    46    20    21 2   
    47    20    22 1   
    48    22    23 1   
    49    23    24 1   
    50    23    36 1   
    51    23    71 1   
    52    24    25 1   
    53    24    72 1   
    54    24    73 1   
    55    25    26 1   
    56    25    74 1   
    57    25    75 1   
    58    26    27 ar  
    59    26    28 ar  
    60    27    33 ar  
    61    27    76 1   
    62    28    29 ar  
    63    28    77 1   
    64    29    30 ar  
    65    29    78 1   
    66    30    31 1   
    67    30    33 ar  
    68    31    32 1   
    69    32    79 1   
    70    32    80 1   
    71    32    81 1   
    72    33    34 1   
    73    34    35 1   
    74    35    82 1   
    75    35    83 1   
    76    35    84 1   
    77    36    37 ar  
    78    36    38 ar  
    79    37    41 ar  
    80    37    85 1   
    81    38    39 ar  
    82    38    86 1   
    83    39    40 ar  
    84    39    87 1   
    85    40    41 ar  
    86    40    88 1   
    87    41    42 1   
    88    42    43 1   
    89    43    44 1   
    90    43    89 1   
    91    43    90 1   
    92    44    45 1   
    93    44    46 1   
@<TRIPOS>SUBSTRUCTURE
     1 0MD         1 TEMP              0 ****  ****    0 ROOT
