@<TRIPOS>MOLECULE
molecule
   90    93     1     0     0
SMALL
bcc


@<TRIPOS>ATOM
      1 CAA          0.0000     0.0000     0.0000 c3         1 0MD      -0.090100
      2 CAQ          1.5310     0.0000     0.0000 c3         1 0MD      -0.081400
      3 CBQ          2.0400     0.0000     1.4420 c3         1 0MD      -0.049700
      4 CAX          1.6350    -1.3080     2.1260 c3         1 0MD      -0.076400
      5 CAS          2.1440    -1.3080     3.5680 c3         1 0MD      -0.083400
      6 CAU          3.6690    -1.1840     3.5710 c3         1 0MD      -0.077400
      7 CBB          4.0740     0.1240     2.8870 c3         1 0MD      -0.115400
      8 CBT          3.5640     0.1250     1.4450 c3         1 0MD       0.071800
      9 OAI          4.1340    -0.9780     0.7380 oh         1 0MD      -0.561800
     10 CBJ          3.9640     1.4130     0.7710 c          1 0MD       0.511100
     11 OAG          3.2450     2.3810     0.8460 o          1 0MD      -0.494100
     12 CBI          5.2450     1.4920     0.0140 c          1 0MD       0.570100
     13 OAF          5.2880     1.1290    -1.1440 o          1 0MD      -0.504100
     14 N            6.3550     1.9650     0.6130 n          1 0MD      -0.489800
     15 CBA          6.2920     2.5200     1.9720 c3         1 0MD       0.105000
     16 CAT          7.3280     1.8060     2.8450 c3         1 0MD      -0.104400
     17 CAR          8.7060     1.9120     2.1860 c3         1 0MD      -0.079400
     18 CB           8.6710     1.2280     0.8180 c3         1 0MD      -0.091400
     19 CA           7.6520     1.9310    -0.0760 c3         1 0MD       0.079700
     20 C            7.5150     1.1770    -1.3740 c          1 0MD       0.645100
     21 O            7.1720     0.0200    -1.3690 o          1 0MD      -0.521000
     22 OBF          7.7750     1.7950    -2.5380 os         1 0MD      -0.428900
     23 CBP          7.6230     1.0090    -3.7490 c3         1 0MD       0.206400
     24 CAZ          8.5980     1.5160    -4.8130 c3         1 0MD      -0.071400
     25 CAV         10.0350     1.2690    -4.3480 c3         1 0MD      -0.038100
     26 CBK         10.9950     1.7700    -5.3960 ca         1 0MD      -0.075300
     27 CAO         11.4490     3.0750    -5.3480 ca         1 0MD      -0.186000
     28 CAM         11.4240     0.9210    -6.4000 ca         1 0MD      -0.123000
     29 CAN         12.3060     1.3760    -7.3630 ca         1 0MD      -0.186000
     30 CBN         12.7610     2.6840    -7.3240 ca         1 0MD       0.106100
     31 OBC         13.6280     3.1320    -8.2710 os         1 0MD      -0.318900
     32 CAB         14.0280     2.2000    -9.2770 c3         1 0MD       0.128700
     33 CBO         12.3330     3.5360    -6.3110 ca         1 0MD       0.113100
     34 OBD         12.7760     4.8210    -6.2680 os         1 0MD      -0.318900
     35 CAC         12.2940     5.6390    -5.2000 c3         1 0MD       0.128700
     36 CBM          6.2100     1.1400    -4.2580 ca         1 0MD      -0.079300
     37 CAP          5.5560     0.0360    -4.7720 ca         1 0MD      -0.149000
     38 CAL          5.5690     2.3630    -4.2060 ca         1 0MD      -0.165000
     39 CAJ          4.2700     2.4850    -4.6680 ca         1 0MD      -0.100000
     40 CAK          3.6130     1.3850    -5.1820 ca         1 0MD      -0.222000
     41 CBL          4.2570     0.1580    -5.2410 ca         1 0MD       0.165100
     42 OBE          3.6120    -0.9260    -5.7470 os         1 0MD      -0.287900
     43 CAW          2.2710    -0.7300    -6.2000 c3         1 0MD       0.019400
     44 CBG          1.7220    -2.0330    -6.7240 c          1 0MD       0.896600
     45 OAH          2.4090    -3.0260    -6.7100 o          1 0MD      -0.829300
     46 OAD          0.4710    -2.0890    -7.2060 o          1 0MD      -0.829300
     47 H1          -0.3610     0.4490    -0.9170 hc         1 0MD       0.031700
     48 H2          -0.3610     0.5700     0.8480 hc         1 0MD       0.031700
     49 H3          -0.3610    -1.0190     0.0690 hc         1 0MD       0.031700
     50 H4           1.8920    -0.8850    -0.5110 hc         1 0MD       0.065700
     51 H5           1.8920     0.8850    -0.5110 hc         1 0MD       0.065700
     52 H6           1.6100     0.8350     1.9820 hc         1 0MD       0.062700
     53 H7           0.5550    -1.3950     2.1250 hc         1 0MD       0.058200
     54 H8           2.0700    -2.1440     1.5900 hc         1 0MD       0.058200
     55 H9           1.7140    -0.4700     4.1020 hc         1 0MD       0.038700
     56 H10          1.8580    -2.2350     4.0510 hc         1 0MD       0.038700
     57 H11          4.0280    -1.1820     4.5930 hc         1 0MD       0.044700
     58 H12          4.0990    -2.0200     3.0320 hc         1 0MD       0.044700
     59 H13          3.6400     0.9590     3.4230 hc         1 0MD       0.050200
     60 H14          5.1540     0.2100     2.8880 hc         1 0MD       0.050200
     61 H15          4.9220    -1.2580     1.1740 ho         1 0MD       0.405000
     62 H16          6.5140     3.5800     1.9410 h1         1 0MD       0.054200
     63 H17          5.3020     2.3630     2.3820 h1         1 0MD       0.054200
     64 H18          7.0570     0.7620     2.9460 hc         1 0MD       0.049200
     65 H19          7.3590     2.2730     3.8220 hc         1 0MD       0.049200
     66 H20          8.9650     2.9570     2.0590 hc         1 0MD       0.044200
     67 H21          9.4430     1.4260     2.8130 hc         1 0MD       0.044200
     68 H22          8.3870     0.1900     0.9420 hc         1 0MD       0.063200
     69 H23          9.6520     1.2870     0.3610 hc         1 0MD       0.063200
     70 H24          7.9820     2.9430    -0.2720 h1         1 0MD       0.066700
     71 H25          7.8340    -0.0320    -3.5330 h1         1 0MD       0.075700
     72 H26          8.4450     2.5780    -4.9660 hc         1 0MD       0.064700
     73 H27          8.4240     0.9890    -5.7430 hc         1 0MD       0.064700
     74 H28         10.1870     0.2070    -4.1960 hc         1 0MD       0.049700
     75 H29         10.2080     1.7960    -3.4170 hc         1 0MD       0.049700
     76 H30         11.1140     3.7360    -4.5580 ha         1 0MD       0.141000
     77 H31         11.0690    -0.1020    -6.4310 ha         1 0MD       0.138000
     78 H32         12.6410     0.7090    -8.1480 ha         1 0MD       0.138000
     79 H33         13.1560     1.8590    -9.8210 h1         1 0MD       0.038033
     80 H34         14.5170     1.3530    -8.8100 h1         1 0MD       0.038033
     81 H35         14.7160     2.6810    -9.9620 h1         1 0MD       0.038033
     82 H36         12.5720     5.1940    -4.2520 h1         1 0MD       0.038033
     83 H37         12.7300     6.6270    -5.2770 h1         1 0MD       0.038033
     84 H38         11.2150     5.7140    -5.2620 h1         1 0MD       0.038033
     85 H39          6.0620    -0.9210    -4.8170 ha         1 0MD       0.142000
     86 H40          6.0830     3.2270    -3.8040 ha         1 0MD       0.117000
     87 H41          3.7680     3.4440    -4.6250 ha         1 0MD       0.113000
     88 H42          2.5970     1.4810    -5.5460 ha         1 0MD       0.142000
     89 H43          2.2620     0.0100    -6.9920 h1         1 0MD       0.025700
     90 H44          1.6580    -0.3850    -5.3760 h1         1 0MD       0.025700
@<TRIPOS>BOND
     1    17    16 1
     2    17    18 1
     3    16    15 1
     4    39    40 ar
     5    39    38 ar
     6    40    41 ar
     7    45    44 1
     8    38    36 ar
     9    18    19 1
    10    15    14 1
    11    43    44 1
    12    43    42 1
    13    44    46 1
    14    41    42 1
    15    41    37 ar
    16    36    37 ar
    17    36    23 1
    18    21    20 2
    19    19    14 1
    20    19    20 1
    21    14    12 1
    22    20    22 1
    23    22    23 1
    24    23    24 1
    25     7     6 1
    26     7     8 1
    27    29    28 ar
    28    29    30 ar
    29    11    10 2
    30    28    26 ar
    31    32    31 1
    32     6     5 1
    33    12    10 1
    34    12    13 2
    35    10     8 1
    36     8     9 1
    37     8     3 1
    38    24    25 1
    39    31    30 1
    40    30    33 ar
    41    26    25 1
    42    26    27 ar
    43     5     4 1
    44     3     4 1
    45     3     2 1
    46    33    27 ar
    47    33    34 1
    48    34    35 1
    49     2     1 1
    50     1    47 1
    51     1    48 1
    52     1    49 1
    53     2    50 1
    54     2    51 1
    55     3    52 1
    56     4    53 1
    57     4    54 1
    58     5    55 1
    59     5    56 1
    60     6    57 1
    61     6    58 1
    62     7    59 1
    63     7    60 1
    64     9    61 1
    65    15    62 1
    66    15    63 1
    67    16    64 1
    68    16    65 1
    69    17    66 1
    70    17    67 1
    71    18    68 1
    72    18    69 1
    73    19    70 1
    74    23    71 1
    75    24    72 1
    76    24    73 1
    77    25    74 1
    78    25    75 1
    79    27    76 1
    80    28    77 1
    81    29    78 1
    82    32    79 1
    83    32    80 1
    84    32    81 1
    85    35    82 1
    86    35    83 1
    87    35    84 1
    88    37    85 1
    89    38    86 1
    90    39    87 1
    91    40    88 1
    92    43    89 1
    93    43    90 1
@<TRIPOS>SUBSTRUCTURE
     1 0MD         1 TEMP              0 ****  ****    0 ROOT
