@<TRIPOS>MOLECULE
molecule
   46    49     1     0     0
SMALL
bcc


@<TRIPOS>ATOM
      1 C1           0.0000     0.0000     0.0000 ca         1 0ME      -0.144800
      2 C2           1.3850     0.0000     0.0000 ca         1 0ME       0.143600
      3 O3           2.0820     0.0000     1.1620 os         1 0ME      -0.231200
      4 C4          -0.7700     0.0080     1.2920 c3         1 0ME       0.020900
      5 C5           0.0010    -0.0040    -2.3980 ca         1 0ME      -0.151500
      6 C6           1.3840    -0.0010    -2.4000 ca         1 0ME      -0.098000
      7 C7           2.0760     0.0000    -1.2060 ca         1 0ME      -0.142000
      8 C8          -0.6890    -0.0030    -1.2010 ca         1 0ME      -0.094000
      9 C9           0.1100    -0.4180     2.4350 ca         1 0ME      -0.144800
     10 C10          1.4900    -0.4080     2.3100 ca         1 0ME       0.143600
     11 C11          2.2820    -0.8080     3.3800 ca         1 0ME      -0.142000
     12 C12          1.6970    -1.2120     4.5620 ca         1 0ME      -0.098000
     13 C13          0.3200    -1.2180     4.6850 ca         1 0ME      -0.151500
     14 C14         -0.4700    -0.8320     3.6210 ca         1 0ME      -0.094000
     15 C15         -1.2940     1.4200     1.5580 c3         1 0ME       0.121000
     16 N16         -2.2870     1.7730     0.5400 ns         1 0ME      -0.591900
     17 C17         -2.8000     3.0190     0.5030 c          1 0ME       0.659100
     18 O18         -2.4410     3.8470     1.3120 o          1 0ME      -0.604100
     19 C19         -3.8200     3.3820    -0.5450 c3         1 0ME      -0.144700
     20 C20         -4.2340     4.8460    -0.3700 c3         1 0ME      -0.061400
     21 C21         -5.2250     5.2230    -1.4740 c3         1 0ME      -0.081400
     22 C22         -4.5770     4.9790    -2.8400 c3         1 0ME       0.155800
     23 N23         -4.2010     3.5650    -2.9580 n7         1 0ME      -0.821200
     24 C24         -3.2140     3.1910    -1.9370 c3         1 0ME       0.165800
     25 H1          -1.6050    -0.6780     1.2110 hc         1 0ME       0.066700
     26 H2          -0.5420    -0.0040    -3.3350 ha         1 0ME       0.134000
     27 H3           1.9240    -0.0010    -3.3400 ha         1 0ME       0.137500
     28 H4           3.1600     0.0020    -1.2090 ha         1 0ME       0.146500
     29 H5          -1.7720    -0.0050    -1.2020 ha         1 0ME       0.129500
     30 H6           3.3610    -0.8030     3.2850 ha         1 0ME       0.146500
     31 H7           2.3170    -1.5150     5.3980 ha         1 0ME       0.137500
     32 H8          -0.1400    -1.5350     5.6130 ha         1 0ME       0.134000
     33 H9          -1.5480    -0.8380     3.7210 ha         1 0ME       0.129500
     34 H10         -1.7540     1.4550     2.5380 h1         1 0ME       0.062700
     35 H11         -0.4710     2.1240     1.5190 h1         1 0ME       0.062700
     36 H12         -2.6290     1.0730    -0.0880 hn         1 0ME       0.313500
     37 H13         -4.6920     2.7470    -0.4430 hc         1 0ME       0.077700
     38 H14         -3.3580     5.4790    -0.4400 hc         1 0ME       0.058200
     39 H15         -4.7050     4.9750     0.5970 hc         1 0ME       0.058200
     40 H16         -6.1160     4.6130    -1.3830 hc         1 0ME       0.050200
     41 H17         -5.4870     6.2710    -1.3820 hc         1 0ME       0.050200
     42 H18         -5.2830     5.2300    -3.6230 h1         1 0ME       0.033700
     43 H19         -3.6920     5.5960    -2.9340 h1         1 0ME       0.033700
     44 H20         -3.8210     3.3950    -3.8680 hn         1 0ME       0.354800
     45 H22         -2.9360     2.1520    -2.0690 h1         1 0ME       0.035200
     46 H23         -2.3380     3.8200    -2.0370 h1         1 0ME       0.035200
@<TRIPOS>BOND
     1    20    21 1   
     2    20    19 1   
     3    18    17 2   
     4    21    22 1   
     5    17    19 1   
     6    17    16 1   
     7    19    24 1   
     8    16    15 1   
     9    15     4 1   
    10    22    23 1   
    11    13    14 ar  
    12    13    12 ar  
    13    14     9 ar  
    14    24    23 1   
    15    12    11 ar  
    16     9     4 1   
    17     9    10 ar  
    18     4     1 1   
    19    11    10 ar  
    20    10     3 1   
    21     3     2 1   
    22     1     2 ar  
    23     1     8 ar  
    24     2     7 ar  
    25     8     5 ar  
    26     7     6 ar  
    27     5     6 ar  
    28     4    25 1   
    29     5    26 1   
    30     6    27 1   
    31     7    28 1   
    32     8    29 1   
    33    11    30 1   
    34    12    31 1   
    35    13    32 1   
    36    14    33 1   
    37    15    34 1   
    38    15    35 1   
    39    16    36 1   
    40    19    37 1   
    41    20    38 1   
    42    20    39 1   
    43    21    40 1   
    44    21    41 1   
    45    22    42 1   
    46    22    43 1   
    47    23    44 1   
    48    24    45 1   
    49    24    46 1   
@<TRIPOS>SUBSTRUCTURE
     1 0ME         1 TEMP              0 ****  ****    0 ROOT
