@<TRIPOS>MOLECULE
0ME
   46    49     1     0     0
SMALL
bcc


@<TRIPOS>ATOM
      1 C1           0.0000     0.0000     0.0000 ca         1 0ME      -0.160800
      2 C2           1.3850     0.0000     0.0000 ca         1 0ME       0.149600
      3 O3           2.0820     0.0000     1.1620 os         1 0ME      -0.198200
      4 C4          -0.7700     0.0080     1.2920 c3         1 0ME       0.078900
      5 C5           0.0010    -0.0040    -2.3980 ca         1 0ME      -0.127500
      6 C6           1.3840    -0.0010    -2.4000 ca         1 0ME      -0.065500
      7 C7           2.0760     0.0000    -1.2060 ca         1 0ME      -0.125500
      8 C8          -0.6890    -0.0030    -1.2010 ca         1 0ME      -0.068500
      9 C9           0.1100    -0.4180     2.4350 ca         1 0ME      -0.160800
     10 C10          1.4900    -0.4080     2.3100 ca         1 0ME       0.149600
     11 C11          2.2820    -0.8080     3.3800 ca         1 0ME      -0.125500
     12 C12          1.6970    -1.2120     4.5620 ca         1 0ME      -0.065500
     13 C13          0.3200    -1.2180     4.6850 ca         1 0ME      -0.127500
     14 C14         -0.4700    -0.8320     3.6210 ca         1 0ME      -0.068500
     15 C15         -1.2940     1.4200     1.5580 c3         1 0ME       0.054000
     16 N16         -2.2870     1.7730     0.5400 ns         1 0ME      -0.218900
     17 C17         -2.8000     3.0190     0.5030 c          1 0ME       0.578100
     18 O18         -2.4410     3.8470     1.3120 o          1 0ME      -0.643100
     19 C19         -3.8200     3.3820    -0.5450 c3         1 0ME      -0.122700
     20 C20         -4.2340     4.8460    -0.3700 c3         1 0ME      -0.010400
     21 C21         -5.2250     5.2230    -1.4740 c3         1 0ME      -0.027400
     22 C22         -4.5770     4.9790    -2.8400 c3         1 0ME       0.144800
     23 N23         -4.2010     3.5650    -2.9580 n7         1 0ME      -0.579200
     24 C24         -3.2140     3.1910    -1.9370 c3         1 0ME       0.150800
     25 H1          -1.6050    -0.6780     1.2110 hc         1 0ME       0.036700
     26 H2          -0.5420    -0.0040    -3.3350 ha         1 0ME       0.106500
     27 H3           1.9240    -0.0010    -3.3400 ha         1 0ME       0.105500
     28 H4           3.1600     0.0020    -1.2090 ha         1 0ME       0.117500
     29 H5          -1.7720    -0.0050    -1.2020 ha         1 0ME       0.105000
     30 H6           3.3610    -0.8030     3.2850 ha         1 0ME       0.117500
     31 H7           2.3170    -1.5150     5.3980 ha         1 0ME       0.105500
     32 H8          -0.1400    -1.5350     5.6130 ha         1 0ME       0.106500
     33 H9          -1.5480    -0.8380     3.7210 ha         1 0ME       0.105000
     34 H10         -1.7540     1.4550     2.5380 h1         1 0ME       0.035200
     35 H11         -0.4710     2.1240     1.5190 h1         1 0ME       0.035200
     36 H12         -2.6290     1.0730    -0.0880 hn         1 0ME       0.184500
     37 H13         -4.6920     2.7470    -0.4430 hc         1 0ME       0.047700
     38 H14         -3.3580     5.4790    -0.4400 hc         1 0ME       0.029700
     39 H15         -4.7050     4.9750     0.5970 hc         1 0ME       0.029700
     40 H16         -6.1160     4.6130    -1.3830 hc         1 0ME       0.019700
     41 H17         -5.4870     6.2710    -1.3820 hc         1 0ME       0.019700
     42 H18         -5.2830     5.2300    -3.6230 h1         1 0ME       0.006700
     43 H19         -3.6920     5.5960    -2.9340 h1         1 0ME       0.006700
     44 H20         -3.8210     3.3950    -3.8680 hn         1 0ME       0.251800
     45 H22         -2.9360     2.1520    -2.0690 h1         1 0ME       0.008700
     46 H23         -2.3380     3.8200    -2.0370 h1         1 0ME       0.008700
@<TRIPOS>BOND
     1     1     2 ar  
     2     1     4 1   
     3     1     8 ar  
     4     2     3 1   
     5     2     7 ar  
     6     3    10 1   
     7     4     9 1   
     8     4    15 1   
     9     4    25 1   
    10     5     6 ar  
    11     5     8 ar  
    12     5    26 1   
    13     6     7 ar  
    14     6    27 1   
    15     7    28 1   
    16     8    29 1   
    17     9    10 ar  
    18     9    14 ar  
    19    10    11 ar  
    20    11    12 ar  
    21    11    30 1   
    22    12    13 ar  
    23    12    31 1   
    24    13    14 ar  
    25    13    32 1   
    26    14    33 1   
    27    15    16 1   
    28    15    34 1   
    29    15    35 1   
    30    16    17 1   
    31    16    36 1   
    32    17    18 2   
    33    17    19 1   
    34    19    20 1   
    35    19    24 1   
    36    19    37 1   
    37    20    21 1   
    38    20    38 1   
    39    20    39 1   
    40    21    22 1   
    41    21    40 1   
    42    21    41 1   
    43    22    23 1   
    44    22    42 1   
    45    22    43 1   
    46    23    24 1   
    47    23    44 1   
    48    24    45 1   
    49    24    46 1   
@<TRIPOS>SUBSTRUCTURE
     1 0ME         1 TEMP              0 ****  ****    0 ROOT
