@<TRIPOS>MOLECULE
0ME
   47    50     1     0     0
SMALL
bcc


@<TRIPOS>ATOM
      1 C1           0.5250    -0.9060    -0.3220 ca         1 0ME      -0.183800
      2 C2           1.7840    -1.2990     0.1550 ca         1 0ME       0.132100
      3 O3           2.2520    -0.9440     1.4110 os         1 0ME      -0.222200
      4 C4          -0.3700    -0.0710     0.5300 c3         1 0ME       0.045900
      5 C5           0.9800    -2.1090    -2.3770 ca         1 0ME      -0.135000
      6 C6           2.2520    -2.4560    -1.9010 ca         1 0ME      -0.079500
      7 C7           2.6620    -2.0640    -0.6330 ca         1 0ME      -0.124500
      8 C8           0.1230    -1.3470    -1.5930 ca         1 0ME      -0.118000
      9 C9          -0.0150    -0.2000     1.9740 ca         1 0ME      -0.183800
     10 C10          1.2680    -0.6290     2.3450 ca         1 0ME       0.132100
     11 C11          1.6440    -0.7430     3.6920 ca         1 0ME      -0.124500
     12 C12          0.7080    -0.4280     4.6720 ca         1 0ME      -0.079500
     13 C13         -0.5830    -0.0210     4.3190 ca         1 0ME      -0.135000
     14 C14         -0.9440     0.0900     2.9800 ca         1 0ME      -0.118000
     15 C15         -0.2330     1.4250     0.1660 c3         1 0ME       0.102800
     16 N16         -0.3870     1.6790    -1.2960 ny         1 0ME      -0.684800
     17 C17         -0.1780     3.1460    -1.6300 c          1 0ME       0.548100
     18 O18          0.9440     3.4350    -2.0070 o          1 0ME      -0.399100
     19 C19         -1.3860     4.0300    -1.4630 c3         1 0ME      -0.137700
     20 C20         -0.9540     5.4880    -1.3430 c3         1 0ME      -0.076400
     21 C21         -2.1790     6.3750    -1.2550 c3         1 0ME      -0.082400
     22 C22         -3.1400     6.1200    -2.4160 c3         1 0ME       0.151800
     23 N23         -3.4680     4.7150    -2.5780 n7         1 0ME      -0.822200
     24 C24         -2.3100     3.8560    -2.6890 c3         1 0ME       0.175800
     25 H1          -1.4430    -0.3860     0.3760 hc         1 0ME       0.082700
     26 H2           0.6560    -2.4580    -3.3690 ha         1 0ME       0.154000
     27 H3           2.9250    -3.0610    -2.5310 ha         1 0ME       0.160000
     28 H4           3.6470    -2.3480    -0.2310 ha         1 0ME       0.172000
     29 H5          -0.8940    -1.1260    -1.9500 ha         1 0ME       0.129000
     30 H6           2.6590    -1.0800     3.9500 ha         1 0ME       0.172000
     31 H7           0.9850    -0.5130     5.7360 ha         1 0ME       0.160000
     32 H8          -1.3180     0.2080     5.1070 ha         1 0ME       0.154000
     33 H9          -1.9640     0.4000     2.7080 ha         1 0ME       0.129000
     34 H10          0.7910     1.7920     0.4690 hx         1 0ME       0.110200
     35 H11         -1.0180     2.0150     0.7180 hx         1 0ME       0.110200
     36 H12          0.3090     1.1010    -1.7960 hn         1 0ME       0.460800
     37 H13         -1.9450     3.7390    -0.5280 hc         1 0ME       0.103700
     38 H14         -0.3170     5.6230    -0.4310 hc         1 0ME       0.069700
     39 H15         -0.3350     5.7710    -2.2360 hc         1 0ME       0.069700
     40 H16         -2.7060     6.1990    -0.2810 hc         1 0ME       0.070700
     41 H17         -1.8620     7.4500    -1.2830 hc         1 0ME       0.070700
     42 H18         -2.6870     6.5560    -3.3550 h1         1 0ME       0.055200
     43 H19         -4.1080     6.6610    -2.2160 h1         1 0ME       0.055200
     44 H20         -4.0790     4.5790    -3.3620 hn         1 0ME       0.394800
     45 H22         -1.6960     4.0570    -3.6170 h1         1 0ME       0.035700
     46 H23         -2.6800     2.7940    -2.7370 h1         1 0ME       0.035700
     47 H162        -1.3230     1.3890    -1.5950 hn         1 0ME       0.460800
@<TRIPOS>BOND
     1     1     2 ar  
     2     1     4 1   
     3     1     8 ar  
     4     2     3 1   
     5     2     7 ar  
     6     3    10 1   
     7     4     9 1   
     8     4    15 1   
     9     4    25 1   
    10     5     6 ar  
    11     5     8 ar  
    12     5    26 1   
    13     6     7 ar  
    14     6    27 1   
    15     7    28 1   
    16     8    29 1   
    17     9    10 ar  
    18     9    14 ar  
    19    10    11 ar  
    20    11    12 ar  
    21    11    30 1   
    22    12    13 ar  
    23    12    31 1   
    24    13    14 ar  
    25    13    32 1   
    26    14    33 1   
    27    15    16 1   
    28    15    34 1   
    29    15    35 1   
    30    16    17 1   
    31    16    36 1   
    32    16    47 1   
    33    17    18 2   
    34    17    19 1   
    35    19    20 1   
    36    19    24 1   
    37    19    37 1   
    38    20    21 1   
    39    20    38 1   
    40    20    39 1   
    41    21    22 1   
    42    21    40 1   
    43    21    41 1   
    44    22    23 1   
    45    22    42 1   
    46    22    43 1   
    47    23    24 1   
    48    23    44 1   
    49    24    45 1   
    50    24    46 1   
@<TRIPOS>SUBSTRUCTURE
     1 0ME         1 TEMP              0 ****  ****    0 ROOT
