@<TRIPOS>MOLECULE
0MJ
   64    68     1     0     0
SMALL
bcc


@<TRIPOS>ATOM
      1 C1           0.0000     0.0000     0.0000 c3         1 0MJ       0.078900
      2 O2           1.5720    -0.0000     2.3840 os         1 0MJ      -0.197200
      3 C3           1.5050     0.0000     0.0000 ca         1 0MJ      -0.162300
      4 C4          -0.5280    -0.4370     1.3400 ca         1 0MJ      -0.162300
      5 C5           2.2120     0.0000     1.1910 ca         1 0MJ       0.149100
      6 C6           0.2840    -0.4140     2.4620 ca         1 0MJ       0.149100
      7 C7          -0.5050     1.4120    -0.3050 c3         1 0MJ       0.055000
      8 C8          -1.8390    -0.8660     1.4450 ca         1 0MJ      -0.069000
      9 C9           2.1830    -0.0020    -1.2050 ca         1 0MJ      -0.069000
     10 C10          3.6030    -0.0000     1.1670 ca         1 0MJ      -0.125000
     11 C11         -0.2260    -0.8230     3.6890 ca         1 0MJ      -0.125000
     12 C12          3.5650    -0.0030    -1.2260 ca         1 0MJ      -0.125500
     13 C13         -2.3420    -1.2710     2.6670 ca         1 0MJ      -0.125500
     14 C14          4.2740    -0.0000    -0.0390 ca         1 0MJ      -0.065500
     15 C15         -1.5340    -1.2490     3.7890 ca         1 0MJ      -0.065500
     16 N16         -1.9650     1.3950    -0.4240 ns         1 0MJ      -0.219900
     17 C17         -2.6330     2.5340    -0.6920 c          1 0MJ       0.578100
     18 C18         -4.1340     2.5150    -0.8150 c3         1 0MJ      -0.117700
     19 C19         -4.6400     3.9280    -1.1200 c3         1 0MJ      -0.025400
     20 C20         -6.5100     2.9100    -2.4260 c3         1 0MJ       0.113800
     21 N21         -6.0050     1.5740    -2.0860 n7         1 0MJ      -0.574200
     22 C22         -6.1590     3.8900    -1.3030 c3         1 0MJ       0.203500
     23 C23         -4.5430     1.5760    -1.9520 c3         1 0MJ       0.148800
     24 O24         -2.0260     3.5740    -0.8340 o          1 0MJ      -0.645100
     25 N25         -6.6450     5.2270    -1.6520 n7         1 0MJ      -0.573100
     26 S26         -8.1200     5.7420    -1.1040 sy         1 0MJ       1.041200
     27 O27         -8.2830     7.0720    -1.5780 o          1 0MJ      -0.589300
     28 O28         -9.0410     4.6980    -1.3890 o          1 0MJ      -0.589300
     29 C29         -8.0170     5.8490     0.6520 ca         1 0MJ      -0.167500
     30 C30         -7.6130     7.0270     1.2500 ca         1 0MJ       0.009500
     31 C31         -7.8560     6.0150     3.4070 ca         1 0MJ      -0.035300
     32 C32         -8.2640     4.8380     2.8090 ca         1 0MJ      -0.135500
     33 C33         -7.5320     7.1110     2.6290 ca         1 0MJ      -0.135500
     34 C34         -8.3460     4.7540     1.4310 ca         1 0MJ       0.009500
     35 C35         -7.7670     6.1050     4.9090 c3         1 0MJ       0.056200
     36 H1          -0.3550    -0.6840    -0.7620 hc         1 0MJ       0.036700
     37 H2          -0.2160     2.0800     0.4980 h1         1 0MJ       0.034700
     38 H3          -0.0710     1.7580    -1.2350 h1         1 0MJ       0.034700
     39 H4          -2.4730    -0.8840     0.5670 ha         1 0MJ       0.104500
     40 H5           1.6300    -0.0040    -2.1360 ha         1 0MJ       0.104500
     41 H6           4.1600     0.0020     2.0960 ha         1 0MJ       0.118000
     42 H7           0.4060    -0.8060     4.5690 ha         1 0MJ       0.118000
     43 H8           4.0920    -0.0030    -2.1720 ha         1 0MJ       0.107500
     44 H9          -3.3690    -1.6060     2.7460 ha         1 0MJ       0.107500
     45 H10          5.3570    -0.0010    -0.0560 ha         1 0MJ       0.105500
     46 H11         -1.9280    -1.5660     4.7470 ha         1 0MJ       0.105500
     47 H12         -2.4620     0.5300    -0.3460 hn         1 0MJ       0.189500
     48 H13         -4.5730     2.1690     0.1130 hc         1 0MJ       0.049700
     49 H14         -4.1760     4.2890    -2.0300 hc         1 0MJ       0.035200
     50 H15         -4.3920     4.5850    -0.2950 hc         1 0MJ       0.035200
     51 H16         -7.5860     2.8690    -2.5440 h1         1 0MJ       0.025700
     52 H17         -6.0520     3.2430    -3.3490 h1         1 0MJ       0.025700
     53 H18         -6.2750     0.9250    -2.7980 hn         1 0MJ       0.256800
     54 H20         -6.6240     3.5610    -0.3810 h1         1 0MJ       0.039700
     55 H21         -4.2020     0.5720    -1.7290 h1         1 0MJ       0.007200
     56 H22         -4.0980     1.9170    -2.8780 h1         1 0MJ       0.007200
     57 H23         -6.0930     5.8220    -2.2380 hn         1 0MJ       0.351800
     58 H24         -7.3600     7.8860     0.6400 ha         1 0MJ       0.123000
     59 H25         -8.5200     3.9800     3.4190 ha         1 0MJ       0.112000
     60 H26         -7.2140     8.0340     3.0980 ha         1 0MJ       0.112000
     61 H27         -8.6660     3.8320     0.9620 ha         1 0MJ       0.123000
     62 H28         -8.5950     6.6940     5.2840 hc         1 0MJ       0.011700
     63 H29         -6.8320     6.5760     5.1870 hc         1 0MJ       0.011700
     64 H30         -7.8100     5.1100     5.3340 hc         1 0MJ       0.011700
@<TRIPOS>BOND
     1     1     3 1   
     2     1     4 1   
     3     1     7 1   
     4     1    36 1   
     5     2     5 1   
     6     2     6 1   
     7     3     5 ar  
     8     3     9 ar  
     9     4     6 ar  
    10     4     8 ar  
    11     5    10 ar  
    12     6    11 ar  
    13     7    16 1   
    14     7    37 1   
    15     7    38 1   
    16     8    13 ar  
    17     8    39 1   
    18     9    12 ar  
    19     9    40 1   
    20    10    14 ar  
    21    10    41 1   
    22    11    15 ar  
    23    11    42 1   
    24    12    14 ar  
    25    12    43 1   
    26    13    15 ar  
    27    13    44 1   
    28    14    45 1   
    29    15    46 1   
    30    16    17 1   
    31    16    47 1   
    32    17    18 1   
    33    17    24 2   
    34    18    19 1   
    35    18    23 1   
    36    18    48 1   
    37    19    22 1   
    38    19    49 1   
    39    19    50 1   
    40    20    21 1   
    41    20    22 1   
    42    20    51 1   
    43    20    52 1   
    44    21    23 1   
    45    21    53 1   
    46    22    25 1   
    47    22    54 1   
    48    23    55 1   
    49    23    56 1   
    50    25    26 1   
    51    25    57 1   
    52    26    27 2   
    53    26    28 2   
    54    26    29 1   
    55    29    30 ar  
    56    29    34 ar  
    57    30    33 ar  
    58    30    58 1   
    59    31    32 ar  
    60    31    33 ar  
    61    31    35 1   
    62    32    34 ar  
    63    32    59 1   
    64    33    60 1   
    65    34    61 1   
    66    35    62 1   
    67    35    63 1   
    68    35    64 1   
@<TRIPOS>SUBSTRUCTURE
     1 0MJ         1 TEMP              0 ****  ****    0 ROOT
