@<TRIPOS>MOLECULE
molecule
   66    70     1     0     0
SMALL
bcc


@<TRIPOS>ATOM
      1 C1           0.0000     0.0000     0.0000 c3         1 0MJ       0.048900
      2 O2           1.5270    -0.0730     2.4500 os         1 0MJ      -0.226200
      3 C3           1.5420     0.0000     0.0000 ca         1 0MJ      -0.192800
      4 C4          -0.5070    -0.7430     1.2550 ca         1 0MJ      -0.192800
      5 C5           2.2290     0.0000     1.2390 ca         1 0MJ       0.127600
      6 C6           0.2820    -0.7340     2.4370 ca         1 0MJ       0.127600
      7 C7          -0.4950     1.4860     0.0380 c3         1 0MJ       0.101800
      8 C8          -1.7380    -1.4350     1.2750 ca         1 0MJ      -0.119000
      9 C9           2.2510     0.0210    -1.2200 ca         1 0MJ      -0.119000
     10 C10          3.6260     0.0080     1.2710 ca         1 0MJ      -0.124500
     11 C11         -0.1570    -1.4210     3.6010 ca         1 0MJ      -0.124500
     12 C12          3.6460     0.0760    -1.2010 ca         1 0MJ      -0.133500
     13 C13         -2.1660    -2.1110     2.4540 ca         1 0MJ      -0.133500
     14 C14          4.3160     0.0480     0.0470 ca         1 0MJ      -0.077000
     15 C15         -1.3850    -2.1030     3.6270 ca         1 0MJ      -0.077000
     16 N16          0.1600     2.3580    -0.9660 ny         1 0MJ      -0.674800
     17 C17          1.1090     3.3140    -0.7050 c          1 0MJ       0.546100
     18 C18          1.7160     4.0720    -1.8830 c3         1 0MJ      -0.176700
     19 C19          2.7560     5.1620    -1.4650 c3         1 0MJ      -0.104400
     20 C20          3.9240     4.9180    -3.7440 c3         1 0MJ       0.147800
     21 N21          2.9180     3.8950    -4.1140 n7         1 0MJ      -0.788200
     22 C22          3.2800     5.9010    -2.7280 c3         1 0MJ       0.099500
     23 C23          2.3390     3.1290    -2.9740 c3         1 0MJ       0.166800
     24 O24          1.4960     3.5860     0.4280 o          1 0MJ      -0.402100
     25 N25          4.2020     6.9650    -2.3610 ny         1 0MJ      -0.653900
     26 S26          3.8760     8.5620    -2.5360 sy         1 0MJ       1.557200
     27 O27          4.9680     9.1780    -3.2910 o          1 0MJ      -0.554300
     28 O28          2.5290     8.7450    -3.0550 o          1 0MJ      -0.554300
     29 C29          3.9220     9.0630    -0.8280 ca         1 0MJ      -0.630500
     30 C30          5.0960     8.8910    -0.0650 ca         1 0MJ       0.036000
     31 C31          4.0030     9.9050     1.8720 ca         1 0MJ       0.119700
     32 C32          2.8360    10.0900     1.1030 ca         1 0MJ      -0.164000
     33 C33          5.1380     9.3090     1.2820 ca         1 0MJ      -0.164000
     34 C34          2.7910     9.6670    -0.2360 ca         1 0MJ       0.036000
     35 C35          4.0480    10.3570     3.3400 c3         1 0MJ      -0.109800
     36 H1          -0.3670    -0.4930    -0.8920 hc         1 0MJ       0.091700
     37 H2          -0.3010     1.8900     1.0240 hx         1 0MJ       0.112200
     38 H3          -1.5630     1.4990    -0.1380 hx         1 0MJ       0.112200
     39 H4          -2.3580    -1.4570     0.3860 ha         1 0MJ       0.133500
     40 H5           1.7290    -0.1560    -2.1530 ha         1 0MJ       0.133500
     41 H6           4.1620    -0.0120     2.2120 ha         1 0MJ       0.175000
     42 H7           0.4590    -1.4030     4.4920 ha         1 0MJ       0.175000
     43 H8           4.2080     0.1060    -2.1270 ha         1 0MJ       0.159000
     44 H9          -3.1170    -2.6310     2.4520 ha         1 0MJ       0.159000
     45 H10          5.3980     0.0900     0.0600 ha         1 0MJ       0.165000
     46 H11         -1.7150    -2.6190     4.5200 ha         1 0MJ       0.165000
     47 H12          0.5860     1.7340    -1.6220 hn         1 0MJ       0.466800
     48 H13          0.9010     4.5980    -2.3650 hc         1 0MJ       0.100700
     49 H14          3.5870     4.6890    -0.9550 hc         1 0MJ       0.079200
     50 H15          2.2800     5.8760    -0.8030 hc         1 0MJ       0.079200
     51 H16          4.2320     5.4620    -4.6300 h1         1 0MJ       0.091200
     52 H17          4.7820     4.4370    -3.2900 h1         1 0MJ       0.091200
     53 H18          2.1810     4.3250    -4.6360 hn         1 0MJ       0.392800
     54 H20          2.4260     6.3570    -3.2140 hx         1 0MJ       0.083700
     55 H21          1.5650     2.4710    -3.3510 h1         1 0MJ       0.077700
     56 H22          3.1210     2.5340    -2.5170 h1         1 0MJ       0.077700
     57 H23          4.4160     6.8280    -1.3930 hn         1 0MJ       0.399800
     58 H24          5.9730     8.4460    -0.5190 ha         1 0MJ       0.171500
     59 H25          1.9640    10.5500     1.5520 ha         1 0MJ       0.185500
     60 H26          6.0410     9.1690     1.8650 ha         1 0MJ       0.185500
     61 H27          1.8900     9.8150    -0.8180 ha         1 0MJ       0.171500
     62 H28          4.4610    11.3570     3.3980 hc         1 0MJ       0.094033
     63 H29          4.6690     9.6760     3.9090 hc         1 0MJ       0.094033
     64 H30          3.0440    10.3570     3.7480 hc         1 0MJ       0.094033
     65 H162        -0.5870     2.8380    -1.4280 hn         1 0MJ       0.466800
     66 H252         5.0590     6.7680    -2.8380 hn         1 0MJ       0.399800
@<TRIPOS>BOND
     1    28    26 2   
     2    27    26 2   
     3    21    20 1   
     4    21    23 1   
     5    26    25 1   
     6    26    29 1   
     7    20    22 1   
     8    22    25 1   
     9    22    19 1   
    10    23    18 1   
    11    34    29 ar  
    12    34    32 ar  
    13    18    19 1   
    14    18    17 1   
    15    29    30 ar  
    16    16    17 1   
    17    16     7 1   
    18    32    31 ar  
    19    17    24 2   
    20    30    33 ar  
    21     7     1 1   
    22    31    33 ar  
    23    31    35 1   
    24     9    12 ar  
    25     9     3 ar  
    26     1     3 1   
    27     1     4 1   
    28    12    14 ar  
    29     3     5 ar  
    30     8     4 ar  
    31     8    13 ar  
    32     4     6 ar  
    33    13    15 ar  
    34    14    10 ar  
    35     5    10 ar  
    36     5     2 1   
    37     6     2 1   
    38     6    11 ar  
    39    15    11 ar  
    40     1    36 1   
    41     7    37 1   
    42     7    38 1   
    43     8    39 1   
    44     9    40 1   
    45    10    41 1   
    46    11    42 1   
    47    12    43 1   
    48    13    44 1   
    49    14    45 1   
    50    15    46 1   
    51    16    47 1   
    52    18    48 1   
    53    19    49 1   
    54    19    50 1   
    55    20    51 1   
    56    20    52 1   
    57    21    53 1   
    58    22    54 1   
    59    23    55 1   
    60    23    56 1   
    61    25    57 1   
    62    30    58 1   
    63    32    59 1   
    64    33    60 1   
    65    34    61 1   
    66    35    62 1   
    67    35    63 1   
    68    35    64 1   
    69    65    16 1   
    70    66    25 1   
@<TRIPOS>SUBSTRUCTURE
     1 0MJ         1 TEMP              0 ****  ****    0 ROOT
