@<TRIPOS>MOLECULE
0MN
   46    49     1     0     0
SMALL
bcc


@<TRIPOS>ATOM
      1 O3           0.0000     0.0000     0.0000 o          1 0MN      -0.597100
      2 C8           1.2120     0.0000     0.0000 c          1 0MN       0.549100
      3 C7           1.9670     0.0000     1.3050 c3         1 0MN       0.134400
      4 O2           1.0380     0.0010     2.3910 os         1 0MN      -0.265900
      5 C6           1.5590     0.0010     3.6470 ca         1 0MN       0.183100
      6 C5           2.9340    -0.0000     3.8290 ca         1 0MN      -0.261000
      7 C4           3.4630     0.0010     5.1050 ca         1 0MN      -0.011000
      8 C3           2.6250     0.0010     6.2040 ca         1 0MN      -0.252000
      9 C22          0.7150     0.0080     4.7480 ca         1 0MN      -0.178000
     10 C2           1.2480     0.0020     6.0260 ca         1 0MN       0.191100
     11 O1           0.4240     0.0080     7.1070 os         1 0MN      -0.305900
     12 C1           1.0430     0.0010     8.3950 c3         1 0MN       0.244700
     13 N1           1.8860    -0.0070    -1.1680 ns         1 0MN      -0.038100
     14 C9           1.1900    -0.1100    -2.3750 ca         1 0MN      -0.078400
     15 C14         -0.0530     0.4970    -2.5130 ca         1 0MN      -0.124000
     16 C13         -0.7420     0.3980    -3.7020 ca         1 0MN      -0.052000
     17 C12         -0.1900    -0.3150    -4.7690 ca         1 0MN      -0.127900
     18 C11          1.0590    -0.9240    -4.6270 ca         1 0MN      -0.052000
     19 C10          1.7440    -0.8150    -3.4370 ca         1 0MN      -0.124000
     20 C15         -0.9270    -0.4250    -6.0450 cc         1 0MN       0.465800
     21 S           -0.3510    -1.2880    -7.4650 ss         1 0MN      -0.227100
     22 C21         -1.8170    -0.8520    -8.3390 ca         1 0MN      -0.015100
     23 C16         -2.6280    -0.0890    -7.4910 ca         1 0MN       0.073400
     24 N2          -2.0850     0.0950    -6.2750 nd         1 0MN      -0.448100
     25 C20         -2.2340    -1.1410    -9.6370 ca         1 0MN      -0.049000
     26 C19         -3.4470    -0.6750   -10.0920 ca         1 0MN      -0.091000
     27 C18         -4.2560     0.0840    -9.2580 ca         1 0MN      -0.100000
     28 C17         -3.8670     0.3740    -7.9860 ca         1 0MN      -0.044000
     29 H1           2.5890    -0.8850     1.3620 h1         1 0MN       0.015700
     30 H2           2.5900     0.8840     1.3620 h1         1 0MN       0.015700
     31 H3           3.5940    -0.0000     2.9690 ha         1 0MN       0.115000
     32 H4           4.5380    -0.0000     5.2450 ha         1 0MN       0.098000
     33 H5           3.0420    -0.0010     7.2030 ha         1 0MN       0.123000
     34 H6          -0.3600     0.0090     4.6080 ha         1 0MN       0.135000
     35 H7           0.2780     0.0020     9.1630 h1         1 0MN      -0.002300
     36 H8           1.6560    -0.8860     8.4970 h1         1 0MN      -0.002300
     37 H9           1.6630     0.8830     8.5030 h1         1 0MN      -0.002300
     38 H10          2.8820     0.0950    -1.1710 hn         1 0MN       0.166500
     39 H11         -0.4800     1.0500    -1.6850 ha         1 0MN       0.128000
     40 H12         -1.7100     0.8710    -3.8080 ha         1 0MN       0.120500
     41 H13          1.4900    -1.4760    -5.4530 ha         1 0MN       0.120500
     42 H14          2.7130    -1.2870    -3.3260 ha         1 0MN       0.128000
     43 H15         -1.6030    -1.7330   -10.2890 ha         1 0MN       0.111000
     44 H16         -3.7690    -0.8980   -11.1020 ha         1 0MN       0.107000
     45 H17         -5.2090     0.4480    -9.6220 ha         1 0MN       0.107000
     46 H18         -4.5120     0.9680    -7.3490 ha         1 0MN       0.114000
@<TRIPOS>BOND
     1     1     2 2   
     2     2     3 1   
     3     2    13 1   
     4     3     4 1   
     5     3    29 1   
     6     3    30 1   
     7     4     5 1   
     8     5     6 ar  
     9     5     9 ar  
    10     6     7 ar  
    11     6    31 1   
    12     7     8 ar  
    13     7    32 1   
    14     8    10 ar  
    15     8    33 1   
    16     9    10 ar  
    17     9    34 1   
    18    10    11 1   
    19    11    12 1   
    20    12    35 1   
    21    12    36 1   
    22    12    37 1   
    23    13    14 1   
    24    13    38 1   
    25    14    15 ar  
    26    14    19 ar  
    27    15    16 ar  
    28    15    39 1   
    29    16    17 ar  
    30    16    40 1   
    31    17    18 ar  
    32    17    20 1   
    33    18    19 ar  
    34    18    41 1   
    35    19    42 1   
    36    20    21 1   
    37    20    24 2   
    38    21    22 1   
    39    22    23 ar  
    40    22    25 ar  
    41    23    24 1   
    42    23    28 ar  
    43    25    26 ar  
    44    25    43 1   
    45    26    27 ar  
    46    26    44 1   
    47    27    28 ar  
    48    27    45 1   
    49    28    46 1   
@<TRIPOS>SUBSTRUCTURE
     1 0MN         1 TEMP              0 ****  ****    0 ROOT
