@<TRIPOS>MOLECULE
0MN
   46    49     1     0     0
SMALL
bcc


@<TRIPOS>ATOM
      1 O3           2.6710    -3.9370     0.0230 o          1 0MN      -0.584100
      2 C8           2.4250    -2.7730     0.3860 c          1 0MN       0.667100
      3 C7           2.6630    -2.4220     1.8580 c3         1 0MN       0.053400
      4 O2           1.8410    -1.3150     2.2270 os         1 0MN      -0.342900
      5 C6           1.9310    -0.9160     3.5510 ca         1 0MN       0.152100
      6 C5           2.7930    -1.4930     4.4940 ca         1 0MN      -0.232000
      7 C4           2.7940    -0.9960     5.7960 ca         1 0MN      -0.060000
      8 C3           1.9600     0.0550     6.1680 ca         1 0MN      -0.229000
      9 C22          1.0760     0.1410     3.8910 ca         1 0MN      -0.184000
     10 C2           1.1040     0.6190     5.2110 ca         1 0MN       0.156100
     11 O1           0.2350     1.6620     5.4600 os         1 0MN      -0.323900
     12 C1           0.2200     2.1650     6.7910 c3         1 0MN       0.112700
     13 N1           2.0140    -1.7630    -0.4650 ns         1 0MN      -0.452100
     14 C9           1.7270    -1.8710    -1.8340 ca         1 0MN       0.085600
     15 C14          2.0140    -3.0210    -2.5980 ca         1 0MN      -0.175000
     16 C13          1.7250    -3.0530    -3.9590 ca         1 0MN      -0.070500
     17 C12          1.1490    -1.9480    -4.5980 ca         1 0MN      -0.151900
     18 C11          0.8590    -0.8020    -3.8410 ca         1 0MN      -0.070500
     19 C10          1.1390    -0.7560    -2.4850 ca         1 0MN      -0.175000
     20 C15          0.8500    -1.9670    -6.0210 cc         1 0MN       0.438800
     21 S            0.4700    -0.4640    -6.8360 ss         1 0MN      -0.054100
     22 C21          0.2760    -1.2780    -8.3020 ca         1 0MN      -0.089100
     23 C16          0.5150    -2.6810    -8.1090 ca         1 0MN       0.088400
     24 N2           0.8400    -3.0440    -6.7950 nd         1 0MN      -0.528100
     25 C20         -0.0580    -0.7920    -9.5670 ca         1 0MN      -0.091000
     26 C19         -0.1560    -1.6780   -10.6300 ca         1 0MN      -0.122000
     27 C18          0.0760    -3.0510   -10.4470 ca         1 0MN      -0.131000
     28 C17          0.4090    -3.5630    -9.2040 ca         1 0MN      -0.076000
     29 H1           3.7460    -2.1570     1.9870 h1         1 0MN       0.078200
     30 H2           2.4020    -3.3210     2.4780 h1         1 0MN       0.078200
     31 H3           3.4600    -2.3230     4.2280 ha         1 0MN       0.141000
     32 H4           3.4680    -1.4430     6.5430 ha         1 0MN       0.137000
     33 H5           1.9790     0.4300     7.2000 ha         1 0MN       0.142000
     34 H6           0.4010     0.5850     3.1480 ha         1 0MN       0.165000
     35 H7          -0.0870     1.3680     7.5110 h1         1 0MN       0.046700
     36 H8           1.2200     2.5790     7.0670 h1         1 0MN       0.046700
     37 H9          -0.5480     2.9790     6.7510 h1         1 0MN       0.046700
     38 H10          1.7700    -0.8930    -0.0380 hn         1 0MN       0.335500
     39 H11          2.4660    -3.9110    -2.1290 ha         1 0MN       0.156500
     40 H12          1.9560    -3.9650    -4.5330 ha         1 0MN       0.149000
     41 H13          0.3980     0.0750    -4.3270 ha         1 0MN       0.149000
     42 H14          0.8970     0.1580    -1.9200 ha         1 0MN       0.156500
     43 H15         -0.2410     0.2820    -9.7160 ha         1 0MN       0.139000
     44 H16         -0.4190    -1.3040   -11.6310 ha         1 0MN       0.135000
     45 H17         -0.0100    -3.7290   -11.3100 ha         1 0MN       0.136000
     46 H18          0.5900    -4.6390    -9.0610 ha         1 0MN       0.151000
@<TRIPOS>BOND
     1     1     2 2   
     2     2     3 1   
     3     2    13 1   
     4     3     4 1   
     5     3    29 1   
     6     3    30 1   
     7     4     5 1   
     8     5     6 ar  
     9     5     9 ar  
    10     6     7 ar  
    11     6    31 1   
    12     7     8 ar  
    13     7    32 1   
    14     8    10 ar  
    15     8    33 1   
    16     9    10 ar  
    17     9    34 1   
    18    10    11 1   
    19    11    12 1   
    20    12    35 1   
    21    12    36 1   
    22    12    37 1   
    23    13    14 1   
    24    13    38 1   
    25    14    15 ar  
    26    14    19 ar  
    27    15    16 ar  
    28    15    39 1   
    29    16    17 ar  
    30    16    40 1   
    31    17    18 ar  
    32    17    20 1   
    33    18    19 ar  
    34    18    41 1   
    35    19    42 1   
    36    20    21 1   
    37    20    24 2   
    38    21    22 1   
    39    22    23 ar  
    40    22    25 ar  
    41    23    24 1   
    42    23    28 ar  
    43    25    26 ar  
    44    25    43 1   
    45    26    27 ar  
    46    26    44 1   
    47    27    28 ar  
    48    27    45 1   
    49    28    46 1   
@<TRIPOS>SUBSTRUCTURE
     1 0MN         1 TEMP              0 ****  ****    0 ROOT
