@<TRIPOS>MOLECULE
molecule
   46    49     1     0     0
SMALL
bcc


@<TRIPOS>ATOM
      1 O3           0.0000     0.0000     0.0000 o          1 0MN      -0.552100
      2 C8           1.2120     0.0000     0.0000 c          1 0MN       0.656100
      3 C7           1.9670     0.0000     1.3050 c3         1 0MN       0.067400
      4 O2           1.0380     0.0010     2.3910 os         1 0MN      -0.292900
      5 C6           1.5590     0.0010     3.6470 ca         1 0MN       0.173100
      6 C5           2.9340    -0.0000     3.8290 ca         1 0MN      -0.264000
      7 C4           3.4630     0.0010     5.1050 ca         1 0MN      -0.052000
      8 C3           2.6250     0.0010     6.2040 ca         1 0MN      -0.256000
      9 C22          0.7150     0.0080     4.7480 ca         1 0MN      -0.184000
     10 C2           1.2480     0.0020     6.0260 ca         1 0MN       0.177100
     11 O1           0.4240     0.0080     7.1070 os         1 0MN      -0.323900
     12 C1           1.0430     0.0010     8.3950 c3         1 0MN       0.129700
     13 N1           1.8860    -0.0070    -1.1680 ns         1 0MN      -0.482100
     14 C9           1.1900    -0.1100    -2.3750 ca         1 0MN       0.069600
     15 C14         -0.0530     0.4970    -2.5130 ca         1 0MN      -0.149500
     16 C13         -0.7420     0.3980    -3.7020 ca         1 0MN      -0.077500
     17 C12         -0.1900    -0.3150    -4.7690 ca         1 0MN      -0.128900
     18 C11          1.0590    -0.9240    -4.6270 ca         1 0MN      -0.077500
     19 C10          1.7440    -0.8150    -3.4370 ca         1 0MN      -0.149500
     20 C15         -0.9270    -0.4250    -6.0450 cc         1 0MN       0.487800
     21 S           -0.3510    -1.2880    -7.4650 ss         1 0MN      -0.143100
     22 C21         -1.8170    -0.8520    -8.3390 ca         1 0MN      -0.047100
     23 C16         -2.6280    -0.0890    -7.4910 ca         1 0MN       0.125400
     24 N2          -2.0850     0.0950    -6.2750 nd         1 0MN      -0.580100
     25 C20         -2.2340    -1.1410    -9.6370 ca         1 0MN      -0.088000
     26 C19         -3.4470    -0.6750   -10.0920 ca         1 0MN      -0.119000
     27 C18         -4.2560     0.0840    -9.2580 ca         1 0MN      -0.128000
     28 C17         -3.8670     0.3740    -7.9860 ca         1 0MN      -0.074000
     29 H1           2.5890    -0.8850     1.3620 h1         1 0MN       0.056200
     30 H2           2.5900     0.8840     1.3620 h1         1 0MN       0.056200
     31 H3           3.5940    -0.0000     2.9690 ha         1 0MN       0.128000
     32 H4           4.5380    -0.0000     5.2450 ha         1 0MN       0.131000
     33 H5           3.0420    -0.0010     7.2030 ha         1 0MN       0.136000
     34 H6          -0.3600     0.0090     4.6080 ha         1 0MN       0.163000
     35 H7           0.2780     0.0020     9.1630 h1         1 0MN       0.042700
     36 H8           1.6560    -0.8860     8.4970 h1         1 0MN       0.042700
     37 H9           1.6630     0.8830     8.5030 h1         1 0MN       0.042700
     38 H10          2.8820     0.0950    -1.1710 hn         1 0MN       0.323500
     39 H11         -0.4800     1.0500    -1.6850 ha         1 0MN       0.152500
     40 H12         -1.7100     0.8710    -3.8080 ha         1 0MN       0.150000
     41 H13          1.4900    -1.4760    -5.4530 ha         1 0MN       0.150000
     42 H14          2.7130    -1.2870    -3.3260 ha         1 0MN       0.152500
     43 H15         -1.6030    -1.7330   -10.2890 ha         1 0MN       0.136000
     44 H16         -3.7690    -0.8980   -11.1020 ha         1 0MN       0.136000
     45 H17         -5.2090     0.4480    -9.6220 ha         1 0MN       0.136000
     46 H18         -4.5120     0.9680    -7.3490 ha         1 0MN       0.146000
@<TRIPOS>BOND
     1    12    11 1
     2    11    10 1
     3    10     9 ar
     4    10     8 ar
     5     9     5 ar
     6     8     7 ar
     7     5     4 1
     8     5     6 ar
     9     1     2 2
    10     4     3 1
    11     7     6 ar
    12     2     3 1
    13     2    13 1
    14    15    16 ar
    15    15    14 ar
    16    16    17 ar
    17    13    14 1
    18    28    23 ar
    19    28    27 ar
    20    24    23 1
    21    24    20 2
    22    14    19 ar
    23    23    22 ar
    24    17    20 1
    25    17    18 ar
    26    27    26 ar
    27    20    21 1
    28    19    18 ar
    29    22    21 1
    30    22    25 ar
    31    26    25 ar
    32     3    29 1
    33     3    30 1
    34     6    31 1
    35     7    32 1
    36     8    33 1
    37     9    34 1
    38    12    35 1
    39    12    36 1
    40    12    37 1
    41    13    38 1
    42    15    39 1
    43    16    40 1
    44    18    41 1
    45    19    42 1
    46    25    43 1
    47    26    44 1
    48    27    45 1
    49    28    46 1
@<TRIPOS>SUBSTRUCTURE
     1 0MN         1 TEMP              0 ****  ****    0 ROOT
