@<TRIPOS>MOLECULE
0MO
   42    43     1     0     0
SMALL
bcc


@<TRIPOS>ATOM
      1 C1          -0.2150     0.1560     0.4740 c3         1 0MO      -0.094100
      2 N1          -1.6480    -6.2850     4.2680 ns         1 0MO      -0.525900
      3 O1           2.8220    -2.4240     1.0860 os         1 0MO      -0.307900
      4 C2           1.2270    -0.0450     0.0880 c3         1 0MO      -0.083400
      5 N2           0.0380    -7.7420     5.0250 ns         1 0MO      -0.513900
      6 O2           4.2170    -3.9860    -0.4510 os         1 0MO      -0.302900
      7 C3           2.1420    -0.1720     1.2870 c3         1 0MO      -0.080400
      8 O3          -2.0140    -7.6040     6.1960 o          1 0MO      -0.617500
      9 C4           2.0740    -1.5430     1.9370 c3         1 0MO       0.124400
     10 C5           2.9020    -3.7350     1.5030 ca         1 0MO       0.111100
     11 C6           3.6670    -4.5910     0.6610 ca         1 0MO       0.103100
     12 C7           5.0100    -4.8230    -1.2850 c3         1 0MO       0.109700
     13 C8           3.8110    -5.9370     0.9940 ca         1 0MO      -0.177000
     14 C9           3.2050    -6.4390     2.1480 ca         1 0MO      -0.126000
     15 C10          2.4510    -5.6080     2.9750 ca         1 0MO      -0.086300
     16 C11          1.8210    -6.1490     4.2100 c3         1 0MO      -0.053100
     17 C12          0.6150    -7.0320     3.8790 c3         1 0MO       0.051700
     18 C13         -0.5710    -6.1830     3.2930 c3         1 0MO       0.043000
     19 C14         -1.2820    -7.2450     5.2580 c          1 0MO       0.738500
     20 C15          2.3000    -4.2510     2.6500 ca         1 0MO      -0.180000
     21 H1          -0.8490     0.2530    -0.4410 hc         1 0MO       0.032367
     22 H1A         -0.3360     1.0830     1.0850 hc         1 0MO       0.032367
     23 H1B         -0.5940    -0.7080     1.0710 hc         1 0MO       0.032367
     24 H41         -2.5780    -6.3400     3.9210 hn         1 0MO       0.309500
     25 H2           1.3280    -0.9660    -0.5470 hc         1 0MO       0.049700
     26 H2A          1.5660     0.8260    -0.5340 hc         1 0MO       0.049700
     27 HN2          0.6140    -7.8390     5.8300 hn         1 0MO       0.304500
     28 H3           1.8710     0.5920     2.0620 hc         1 0MO       0.055700
     29 H3A          3.2000     0.0210     0.9660 hc         1 0MO       0.055700
     30 H4           1.0160    -1.9070     2.0150 h1         1 0MO       0.038200
     31 H4A          2.5450    -1.5240     2.9550 h1         1 0MO       0.038200
     32 H7           5.8830    -5.2320    -0.7210 h1         1 0MO       0.044700
     33 H7A          5.3530    -4.1290    -2.0940 h1         1 0MO       0.044700
     34 H7B          4.3960    -5.6530    -1.7120 h1         1 0MO       0.044700
     35 H8           4.4010    -6.6110     0.3570 ha         1 0MO       0.141000
     36 H9           3.3290    -7.5020     2.4030 ha         1 0MO       0.135000
     37 H11          1.5020    -5.3100     4.8840 hc         1 0MO       0.058200
     38 H11A         2.5830    -6.7590     4.7690 hc         1 0MO       0.058200
     39 H12          0.9300    -7.8100     3.1270 h1         1 0MO       0.077700
     40 H15          1.7080    -3.6020     3.3110 ha         1 0MO       0.142000
     41 H13         -0.2730    -5.1060     3.1890 h1         1 0MO       0.059200
     42 H22         -0.8640    -6.5780     2.2850 h1         1 0MO       0.059200
@<TRIPOS>BOND
     1     1     4 1   
     2     1    21 1   
     3     1    22 1   
     4     1    23 1   
     5     2    18 1   
     6     2    19 1   
     7     2    24 1   
     8     3     9 1   
     9     3    10 1   
    10     4     7 1   
    11     4    25 1   
    12     4    26 1   
    13     5    17 1   
    14     5    19 1   
    15     5    27 1   
    16     6    11 1   
    17     6    12 1   
    18     7     9 1   
    19     7    28 1   
    20     7    29 1   
    21     8    19 2   
    22     9    30 1   
    23     9    31 1   
    24    10    11 ar  
    25    10    20 ar  
    26    11    13 ar  
    27    12    32 1   
    28    12    33 1   
    29    12    34 1   
    30    13    14 ar  
    31    13    35 1   
    32    14    15 ar  
    33    14    36 1   
    34    15    16 1   
    35    15    20 ar  
    36    16    17 1   
    37    16    37 1   
    38    16    38 1   
    39    17    18 1   
    40    17    39 1   
    41    18    41 1   
    42    18    42 1   
    43    20    40 1   
@<TRIPOS>SUBSTRUCTURE
     1 0MO         1 TEMP              0 ****  ****    0 ROOT
