@<TRIPOS>MOLECULE
molecule
   42    43     1     0     0
SMALL
bcc


@<TRIPOS>ATOM
      1 C1           0.0000     0.0000     0.0000 c3         1 0MO      -0.089100
      2 N1           9.0240    -2.1400    -1.8100 ns         1 0MO      -0.614900
      3 O1           4.0470     0.0010     2.7890 os         1 0MO      -0.313900
      4 C2           1.5300     0.0000     0.0000 c3         1 0MO      -0.083400
      5 N2           7.6280    -2.0980    -0.0510 ns         1 0MO      -0.598900
      6 O2           5.1030    -0.0090     5.3330 os         1 0MO      -0.311900
      7 C3           2.0410     0.0000     1.4420 c3         1 0MO      -0.080400
      8 O3           6.9670    -3.0260    -1.9870 o          1 0MO      -0.689500
      9 C4           3.5710     0.0010     1.4420 c3         1 0MO       0.134400
     10 C5           5.3950     0.0020     2.9670 ca         1 0MO       0.125100
     11 C6           5.9290    -0.0040     4.2510 ca         1 0MO       0.114100
     12 C7           5.7220    -0.0140     6.6210 c3         1 0MO       0.127700
     13 C8           7.3040    -0.0040     4.4280 ca         1 0MO      -0.185000
     14 C9           8.1410     0.0010     3.3290 ca         1 0MO      -0.127000
     15 C10          7.6110     0.0060     2.0510 ca         1 0MO      -0.090300
     16 C11          8.5290     0.0110     0.8570 c3         1 0MO      -0.045100
     17 C12          8.8400    -1.4290     0.4460 c3         1 0MO       0.085700
     18 C13          9.7990    -1.4620    -0.7600 c3         1 0MO       0.082000
     19 C14          7.8160    -2.4600    -1.3270 c          1 0MO       0.812500
     20 C15          6.2410     0.0000     1.8690 ca         1 0MO      -0.193000
     21 H1          -0.3610     0.8850     0.5110 hc         1 0MO       0.035367
     22 H1A         -0.3610    -0.8840     0.5110 hc         1 0MO       0.035367
     23 H1B         -0.3610    -0.0000    -1.0210 hc         1 0MO       0.035367
     24 H41          9.3470    -2.3300    -2.7370 hn         1 0MO       0.359500
     25 H2           1.8910     0.8840    -0.5110 hc         1 0MO       0.042700
     26 H2A          1.8910    -0.8840    -0.5110 hc         1 0MO       0.042700
     27 HN2          6.7930    -2.2520     0.4780 hn         1 0MO       0.362500
     28 H3           1.6790     0.8840     1.9530 hc         1 0MO       0.056700
     29 H3A          1.6800    -0.8850     1.9530 hc         1 0MO       0.056700
     30 H4           3.9310     0.8860     0.9320 h1         1 0MO       0.034700
     31 H4A          3.9320    -0.8830     0.9310 h1         1 0MO       0.034700
     32 H7           6.3390     0.8700     6.7300 h1         1 0MO       0.040367
     33 H7A          4.9580    -0.0180     7.3890 h1         1 0MO       0.040367
     34 H7B          6.3390    -0.8990     6.7220 h1         1 0MO       0.040367
     35 H8           7.7210    -0.0080     5.4280 ha         1 0MO       0.141000
     36 H9           9.2160     0.0000     3.4680 ha         1 0MO       0.130000
     37 H11          9.4500     0.5210     1.1110 hc         1 0MO       0.058700
     38 H11A         8.0470     0.5250     0.0340 hc         1 0MO       0.058700
     39 H12          9.2610    -1.9830     1.2760 h1         1 0MO       0.063700
     40 H15          5.8280     0.0040     0.8670 ha         1 0MO       0.147000
     41 H13          9.9370    -0.4370    -1.0820 h1         1 0MO       0.062700
     42 H22         10.6160    -2.1220    -0.4950 h1         1 0MO       0.062700
@<TRIPOS>BOND
     1     2    19 1   
     2     3    10 1   
     3     3     9 1   
     4     4     1 1   
     5     4     7 1   
     6     5    19 1   
     7     6    11 1   
     8     7     9 1   
     9    10    20 ar  
    10    11    10 ar  
    11    11    13 ar  
    12    12     6 1   
    13    13    14 ar  
    14    14    15 ar  
    15    15    16 1   
    16    16    17 1   
    17    17     5 1   
    18    17    18 1   
    19    18     2 1   
    20    19     8 2   
    21    20    15 ar  
    22     1    21 1   
    23     1    22 1   
    24     1    23 1   
    25     2    24 1   
    26     4    25 1   
    27     4    26 1   
    28     5    27 1   
    29     7    28 1   
    30     7    29 1   
    31     9    30 1   
    32     9    31 1   
    33    12    32 1   
    34    12    33 1   
    35    12    34 1   
    36    13    35 1   
    37    14    36 1   
    38    16    37 1   
    39    16    38 1   
    40    17    39 1   
    41    20    40 1   
    42    18    41 1   
    43    18    42 1   
@<TRIPOS>SUBSTRUCTURE
     1 0MO         1 TEMP              0 ****  ****    0 ROOT
