@<TRIPOS>MOLECULE
molecule
   73    76     1     0     0
SMALL
bcc


@<TRIPOS>ATOM
      1 C2           0.0000     0.0000     0.0000 cy         1 0MP      -0.094900
      2 C3           1.5390     0.0000     0.0000 cy         1 0MP      -0.106400
      3 C4           1.4630     0.0000     1.5360 cy         1 0MP      -0.094900
      4 C1           0.0810     0.6490     1.3870 cy         1 0MP       0.133800
      5 C13          0.1210     2.1780     1.3450 c3         1 0MP      -0.126400
      6 O12         -0.8900     0.1660     2.3100 os         1 0MP      -0.417100
      7 C5          -2.1160     0.7540     2.2930 ca         1 0MP       0.668600
      8 N10         -3.1090     0.1420     2.9270 nb         1 0MP      -0.718000
      9 C9          -4.3280     0.6420     2.9660 ca         1 0MP       0.461200
     10 C8          -4.6190     1.8380     2.3390 ca         1 0MP      -0.250600
     11 C14         -6.0140     2.4050     2.3900 c3         1 0MP      -0.015100
     12 C15         -6.1360     3.3540     3.5840 c3         1 0MP      -0.068000
     13 C17         -7.5580     3.9160     3.6460 c3         1 0MP      -0.083100
     14 C18         -5.8320     2.5920     4.8750 c3         1 0MP      -0.083100
     15 C16         -5.1400     4.5040     3.4250 c3         1 0MP      -0.083100
     16 C7          -3.6110     2.5080     1.6640 ca         1 0MP      -0.034000
     17 C6          -2.3400     1.9530     1.6390 ca         1 0MP      -0.275600
     18 C11         -1.2530     2.6780     0.8890 c3         1 0MP       0.223800
     19 N29         -1.3580     4.1190     1.1500 n7         1 0MP      -0.813200
     20 C28         -0.7510     4.8980     0.0620 c3         1 0MP       0.151800
     21 C26         -0.8510     6.3900     0.3850 c3         1 0MP       0.123100
     22 O30         -0.1410     6.6640     1.5950 oh         1 0MP      -0.612800
     23 C25         -0.2410     7.2010    -0.7600 c3         1 0MP       0.110700
     24 N27         -0.8840     6.8250    -2.0210 ns         1 0MP      -0.583900
     25 C33         -2.2200     6.9460    -2.1580 c          1 0MP       0.657100
     26 C35         -2.8950     6.4570    -3.4140 c3         1 0MP      -0.169100
     27 O34         -2.8780     7.4470    -1.2720 o          1 0MP      -0.617100
     28 C31         -0.4580     8.6930    -0.5000 c3         1 0MP      -0.058100
     29 C19          0.2480     9.4960    -1.5620 ca         1 0MP      -0.096300
     30 C20          1.5610     9.8850    -1.3750 ca         1 0MP      -0.101000
     31 C21          2.2100    10.6220    -2.3480 ca         1 0MP      -0.167500
     32 C22          1.5440    10.9690    -3.5110 ca         1 0MP       0.128900
     33 F32          2.1770    11.6880    -4.4630 f          1 0MP      -0.141900
     34 C23          0.2290    10.5780    -3.6980 ca         1 0MP      -0.167500
     35 C24         -0.4160     9.8370    -2.7260 ca         1 0MP      -0.101000
     36 H1          -0.4240     0.6560    -0.7510 hc         1 0MP       0.067200
     37 H2          -0.4240    -0.9970     0.0220 hc         1 0MP       0.067200
     38 H3           1.9620     0.9120    -0.4030 hc         1 0MP       0.057700
     39 H4           1.9620    -0.9120    -0.4030 hc         1 0MP       0.057700
     40 H5           1.4200    -0.9970     1.9590 hc         1 0MP       0.067200
     41 H6           2.1920     0.6560     1.9970 hc         1 0MP       0.067200
     42 H7           0.3390     2.5630     2.3340 hc         1 0MP       0.063200
     43 H8           0.8790     2.5040     0.6440 hc         1 0MP       0.063200
     44 H9          -5.1120     0.1050     3.4850 h4         1 0MP       0.027100
     45 H10         -6.7290     1.5980     2.4960 hc         1 0MP       0.047700
     46 H11         -6.2160     2.9480     1.4750 hc         1 0MP       0.047700
     47 H12         -8.2670     3.0980     3.7020 hc         1 0MP       0.035811
     48 H13         -7.7530     4.5020     2.7560 hc         1 0MP       0.035811
     49 H14         -7.6600     4.5440     4.5220 hc         1 0MP       0.035811
     50 H15         -6.1830     3.1650     5.7240 hc         1 0MP       0.035811
     51 H16         -6.3350     1.6320     4.8540 hc         1 0MP       0.035811
     52 H17         -4.7630     2.4370     4.9590 hc         1 0MP       0.035811
     53 H18         -5.4210     5.3190     4.0810 hc         1 0MP       0.035811
     54 H19         -4.1460     4.1590     3.6820 hc         1 0MP       0.035811
     55 H20         -5.1470     4.8490     2.3980 hc         1 0MP       0.035811
     56 H21         -3.8120     3.4480     1.1630 ha         1 0MP       0.157000
     57 H22         -1.3660     2.4920    -0.1720 h1         1 0MP       0.065700
     58 H23         -0.8980     4.3370     2.0130 hn         1 0MP       0.371800
     59 H25          0.2910     4.6200    -0.0430 h1         1 0MP       0.038200
     60 H26         -1.2750     4.6930    -0.8640 h1         1 0MP       0.038200
     61 H27         -1.8920     6.6640     0.5070 h1         1 0MP       0.086700
     62 H28         -0.6960     7.1500     2.1820 ho         1 0MP       0.412000
     63 H29          0.8210     6.9960    -0.8210 h1         1 0MP       0.070700
     64 H30         -0.3340     6.4710    -2.7780 hn         1 0MP       0.319500
     65 H31         -3.6350     5.7080    -3.1570 hc         1 0MP       0.061700
     66 H32         -3.3810     7.2890    -3.9100 hc         1 0MP       0.061700
     67 H33         -2.1560     6.0230    -4.0760 hc         1 0MP       0.061700
     68 H34         -1.5190     8.9130    -0.5260 hc         1 0MP       0.075200
     69 H35         -0.0590     8.9510     0.4740 hc         1 0MP       0.075200
     70 H36          2.0820     9.6130    -0.4640 ha         1 0MP       0.139500
     71 H37          3.2390    10.9260    -2.2010 ha         1 0MP       0.144500
     72 H38         -0.2920    10.8470    -4.6090 ha         1 0MP       0.144500
     73 H39         -1.4450     9.5310    -2.8720 ha         1 0MP       0.139500
@<TRIPOS>BOND
     1    30    31 ar
     2    30    29 ar
     3    31    32 ar
     4    28    29 1
     5    28    23 1
     6    24    23 1
     7    24    25 1
     8    21    22 1
     9    21    23 1
    10    21    20 1
    11    29    35 ar
    12    26    25 1
    13    19    20 1
    14    19    18 1
    15    32    33 1
    16    32    34 ar
    17    25    27 2
    18     5    18 1
    19     5     4 1
    20    18    17 1
    21    35    34 ar
    22     2     3 1
    23     2     1 1
    24     3     4 1
    25     4     1 1
    26     4     6 1
    27    17    16 ar
    28    17     7 ar
    29    16    10 ar
    30     6     7 1
    31     7     8 ar
    32    14    12 1
    33    10    11 1
    34    10     9 ar
    35    11    12 1
    36     8     9 ar
    37    12    15 1
    38    12    13 1
    39     1    36 1
    40     1    37 1
    41     2    38 1
    42     2    39 1
    43     3    40 1
    44     3    41 1
    45     5    42 1
    46     5    43 1
    47     9    44 1
    48    11    45 1
    49    11    46 1
    50    13    47 1
    51    13    48 1
    52    13    49 1
    53    14    50 1
    54    14    51 1
    55    14    52 1
    56    15    53 1
    57    15    54 1
    58    15    55 1
    59    16    56 1
    60    18    57 1
    61    19    58 1
    62    20    59 1
    63    20    60 1
    64    21    61 1
    65    22    62 1
    66    23    63 1
    67    24    64 1
    68    26    65 1
    69    26    66 1
    70    26    67 1
    71    28    68 1
    72    28    69 1
    73    30    70 1
    74    31    71 1
    75    34    72 1
    76    35    73 1
@<TRIPOS>SUBSTRUCTURE
     1 0MP         1 TEMP              0 ****  ****    0 ROOT
