@<TRIPOS>MOLECULE
0MP
   73    76     1     0     0
SMALL
bcc


@<TRIPOS>ATOM
      1 C2           0.0000     0.0000     0.0000 cy         1 0MP      -0.048900
      2 C3           1.5390     0.0000     0.0000 cy         1 0MP      -0.044400
      3 C4           1.4630     0.0000     1.5360 cy         1 0MP      -0.048900
      4 C1           0.0810     0.6490     1.3870 cy         1 0MP       0.137800
      5 C13          0.1210     2.1780     1.3450 c3         1 0MP      -0.076400
      6 O12         -0.8900     0.1660     2.3100 os         1 0MP      -0.396100
      7 C5          -2.1160     0.7540     2.2930 ca         1 0MP       0.629600
      8 N10         -3.1090     0.1420     2.9270 nb         1 0MP      -0.605000
      9 C9          -4.3280     0.6420     2.9660 ca         1 0MP       0.437200
     10 C8          -4.6190     1.8380     2.3390 ca         1 0MP      -0.250600
     11 C14         -6.0140     2.4050     2.3900 c3         1 0MP       0.049900
     12 C15         -6.1360     3.3540     3.5840 c3         1 0MP      -0.069000
     13 C17         -7.5580     3.9160     3.6460 c3         1 0MP       0.000900
     14 C18         -5.8320     2.5920     4.8750 c3         1 0MP       0.000900
     15 C16         -5.1400     4.5040     3.4250 c3         1 0MP       0.000900
     16 C7          -3.6110     2.5080     1.6640 ca         1 0MP      -0.016000
     17 C6          -2.3400     1.9530     1.6390 ca         1 0MP      -0.286600
     18 C11         -1.2530     2.6780     0.8890 c3         1 0MP       0.193800
     19 N29         -1.3580     4.1190     1.1500 n7         1 0MP      -0.582200
     20 C28         -0.7510     4.8980     0.0620 c3         1 0MP       0.123800
     21 C26         -0.8510     6.3900     0.3850 c3         1 0MP       0.153100
     22 O30         -0.1410     6.6640     1.5950 oh         1 0MP      -0.588800
     23 C25         -0.2410     7.2010    -0.7600 c3         1 0MP       0.016700
     24 N27         -0.8840     6.8250    -2.0210 ns         1 0MP      -0.189900
     25 C33         -2.2200     6.9460    -2.1580 c          1 0MP       0.574100
     26 C35         -2.8950     6.4570    -3.4140 c3         1 0MP      -0.067100
     27 O34         -2.8780     7.4470    -1.2720 o          1 0MP      -0.654100
     28 C31         -0.4580     8.6930    -0.5000 c3         1 0MP      -0.009100
     29 C19          0.2480     9.4960    -1.5620 ca         1 0MP      -0.101300
     30 C20          1.5610     9.8850    -1.3750 ca         1 0MP      -0.077000
     31 C21          2.2100    10.6220    -2.3480 ca         1 0MP      -0.131000
     32 C22          1.5440    10.9690    -3.5110 ca         1 0MP       0.100900
     33 F32          2.1770    11.6880    -4.4630 f          1 0MP      -0.128900
     34 C23          0.2290    10.5780    -3.6980 ca         1 0MP      -0.131000
     35 C24         -0.4160     9.8370    -2.7260 ca         1 0MP      -0.077000
     36 H1          -0.4240     0.6560    -0.7510 hc         1 0MP       0.036700
     37 H2          -0.4240    -0.9970     0.0220 hc         1 0MP       0.036700
     38 H3           1.9620     0.9120    -0.4030 hc         1 0MP       0.027200
     39 H4           1.9620    -0.9120    -0.4030 hc         1 0MP       0.027200
     40 H5           1.4200    -0.9970     1.9590 hc         1 0MP       0.036700
     41 H6           2.1920     0.6560     1.9970 hc         1 0MP       0.036700
     42 H7           0.3390     2.5630     2.3340 hc         1 0MP       0.037700
     43 H8           0.8790     2.5040     0.6440 hc         1 0MP       0.037700
     44 H9          -5.1120     0.1050     3.4850 h4         1 0MP      -0.015900
     45 H10         -6.7290     1.5980     2.4960 hc         1 0MP       0.020200
     46 H11         -6.2160     2.9480     1.4750 hc         1 0MP       0.020200
     47 H12         -8.2670     3.0980     3.7020 hc         1 0MP       0.007144
     48 H13         -7.7530     4.5020     2.7560 hc         1 0MP       0.007144
     49 H14         -7.6600     4.5440     4.5220 hc         1 0MP       0.007144
     50 H15         -6.1830     3.1650     5.7240 hc         1 0MP       0.007144
     51 H16         -6.3350     1.6320     4.8540 hc         1 0MP       0.007144
     52 H17         -4.7630     2.4370     4.9590 hc         1 0MP       0.007144
     53 H18         -5.4210     5.3190     4.0810 hc         1 0MP       0.007144
     54 H19         -4.1460     4.1590     3.6820 hc         1 0MP       0.007144
     55 H20         -5.1470     4.8490     2.3980 hc         1 0MP       0.007144
     56 H21         -3.8120     3.4480     1.1630 ha         1 0MP       0.131000
     57 H22         -1.3660     2.4920    -0.1720 h1         1 0MP       0.040700
     58 H23         -0.8980     4.3370     2.0130 hn         1 0MP       0.274800
     59 H25          0.2910     4.6200    -0.0430 h1         1 0MP       0.013200
     60 H26         -1.2750     4.6930    -0.8640 h1         1 0MP       0.013200
     61 H27         -1.8920     6.6640     0.5070 h1         1 0MP       0.059700
     62 H28         -0.6960     7.1500     2.1820 ho         1 0MP       0.400000
     63 H29          0.8210     6.9960    -0.8210 h1         1 0MP       0.042700
     64 H30         -0.3340     6.4710    -2.7780 hn         1 0MP       0.178500
     65 H31         -3.6350     5.7080    -3.1570 hc         1 0MP       0.023700
     66 H32         -3.3810     7.2890    -3.9100 hc         1 0MP       0.023700
     67 H33         -2.1560     6.0230    -4.0760 hc         1 0MP       0.023700
     68 H34         -1.5190     8.9130    -0.5260 hc         1 0MP       0.050700
     69 H35         -0.0590     8.9510     0.4740 hc         1 0MP       0.050700
     70 H36          2.0820     9.6130    -0.4640 ha         1 0MP       0.113500
     71 H37          3.2390    10.9260    -2.2010 ha         1 0MP       0.119000
     72 H38         -0.2920    10.8470    -4.6090 ha         1 0MP       0.119000
     73 H39         -1.4450     9.5310    -2.8720 ha         1 0MP       0.113500
@<TRIPOS>BOND
     1     1     2 1   
     2     1     4 1   
     3     1    36 1   
     4     1    37 1   
     5     2     3 1   
     6     2    38 1   
     7     2    39 1   
     8     3     4 1   
     9     3    40 1   
    10     3    41 1   
    11     4     5 1   
    12     4     6 1   
    13     5    18 1   
    14     5    42 1   
    15     5    43 1   
    16     6     7 1   
    17     7     8 ar  
    18     7    17 ar  
    19     8     9 ar  
    20     9    10 ar  
    21     9    44 1   
    22    10    11 1   
    23    10    16 ar  
    24    11    12 1   
    25    11    45 1   
    26    11    46 1   
    27    12    13 1   
    28    12    14 1   
    29    12    15 1   
    30    13    47 1   
    31    13    48 1   
    32    13    49 1   
    33    14    50 1   
    34    14    51 1   
    35    14    52 1   
    36    15    53 1   
    37    15    54 1   
    38    15    55 1   
    39    16    17 ar  
    40    16    56 1   
    41    17    18 1   
    42    18    19 1   
    43    18    57 1   
    44    19    20 1   
    45    19    58 1   
    46    20    21 1   
    47    20    59 1   
    48    20    60 1   
    49    21    22 1   
    50    21    23 1   
    51    21    61 1   
    52    22    62 1   
    53    23    24 1   
    54    23    28 1   
    55    23    63 1   
    56    24    25 1   
    57    24    64 1   
    58    25    26 1   
    59    25    27 2   
    60    26    65 1   
    61    26    66 1   
    62    26    67 1   
    63    28    29 1   
    64    28    68 1   
    65    28    69 1   
    66    29    30 ar  
    67    29    35 ar  
    68    30    31 ar  
    69    30    70 1   
    70    31    32 ar  
    71    31    71 1   
    72    32    33 1   
    73    32    34 ar  
    74    34    35 ar  
    75    34    72 1   
    76    35    73 1   
@<TRIPOS>SUBSTRUCTURE
     1 0MP         1 TEMP              0 ****  ****    0 ROOT
