@<TRIPOS>MOLECULE
0MP
   75    78     1     0     0
SMALL
bcc


@<TRIPOS>ATOM
      1 C2          -0.7590    -1.7220     2.2410 cy         1 0MP      -0.091900
      2 C3           0.5050    -1.6240     3.1170 cy         1 0MP      -0.079400
      3 C4           0.0810    -0.2240     3.6050 cy         1 0MP      -0.091900
      4 C1          -1.1890    -0.2940     2.6980 cy         1 0MP       0.099800
      5 C13         -1.2850     0.7440     1.5940 c3         1 0MP      -0.120400
      6 O12         -2.3280    -0.3210     3.5730 os         1 0MP      -0.452100
      7 C5          -3.5410    -0.3180     2.8920 ca         1 0MP       0.622600
      8 N10         -4.4790    -1.2220     3.2650 nb         1 0MP      -0.636000
      9 C9          -5.6600    -1.1400     2.6280 ca         1 0MP       0.463200
     10 C8          -5.9690    -0.1920     1.6170 ca         1 0MP      -0.167600
     11 C14         -7.3100    -0.1860     0.9780 c3         1 0MP      -0.043100
     12 C15         -7.4250    -1.0990    -0.2520 c3         1 0MP      -0.049000
     13 C17         -7.1380    -2.5420     0.1280 c3         1 0MP      -0.093100
     14 C18         -6.4610    -0.6490    -1.3380 c3         1 0MP      -0.093100
     15 C16         -8.8520    -0.9950    -0.7770 c3         1 0MP      -0.093100
     16 C7          -4.9820     0.7280     1.2560 ca         1 0MP      -0.045000
     17 C6          -3.7420     0.6820     1.9060 ca         1 0MP      -0.349600
     18 C11         -2.5880     1.5490     1.5620 c3         1 0MP       0.227800
     19 N29         -2.5370     2.7820     2.4690 ny         1 0MP      -0.766000
     20 C28         -2.3790     2.4730     3.9130 c3         1 0MP       0.087800
     21 C26         -2.3420     3.7360     4.7940 c3         1 0MP       0.110100
     22 O30         -3.5490     4.4400     4.5570 oh         1 0MP      -0.610800
     23 C25         -2.2090     3.3520     6.2980 c3         1 0MP       0.116500
     24 N27         -2.7050     4.4600     7.1930 ny         1 0MP      -0.693800
     25 C33         -1.8720     5.7260     7.1120 c          1 0MP       0.575100
     26 C35         -1.2750     6.2010     8.3890 c3         1 0MP      -0.193100
     27 O34         -1.8030     6.2260     5.9980 o          1 0MP      -0.448100
     28 C31         -2.9260     2.0390     6.6620 c3         1 0MP      -0.052100
     29 C19         -2.8760     1.7670     8.1230 ca         1 0MP      -0.206300
     30 C20         -3.9870     2.0500     8.9300 ca         1 0MP      -0.102500
     31 C21         -3.9770     1.7460    10.2850 ca         1 0MP      -0.156000
     32 C22         -2.8360     1.1380    10.8520 ca         1 0MP       0.183900
     33 F32         -2.8160     0.8390    12.1650 f          1 0MP      -0.093900
     34 C23         -1.7190     0.8410    10.0430 ca         1 0MP      -0.156000
     35 C24         -1.7520     1.1520     8.6890 ca         1 0MP      -0.102500
     36 H1          -1.4760    -2.5080     2.5650 hc         1 0MP       0.071950
     37 H2          -0.5610    -1.8110     1.1520 hc         1 0MP       0.071950
     38 H3           0.5520    -2.3860     3.9250 hc         1 0MP       0.080200
     39 H4           1.4560    -1.6320     2.5430 hc         1 0MP       0.080200
     40 H5          -0.1640    -0.1830     4.6890 hc         1 0MP       0.071950
     41 H6           0.7810     0.5920     3.3330 hc         1 0MP       0.071950
     42 H7          -1.2360     0.2110     0.6000 hc         1 0MP       0.095700
     43 H8          -0.3940     1.4240     1.6330 hc         1 0MP       0.095700
     44 H9          -6.4140    -1.8970     2.9320 h4         1 0MP       0.065100
     45 H10         -7.5680     0.8620     0.6640 hc         1 0MP       0.065200
     46 H11         -8.0790    -0.5120     1.7310 hc         1 0MP       0.065200
     47 H12         -7.2610    -3.2040    -0.7630 hc         1 0MP       0.043144
     48 H13         -6.0940    -2.6500     0.5070 hc         1 0MP       0.043144
     49 H14         -7.8460    -2.8850     0.9220 hc         1 0MP       0.043144
     50 H15         -5.4070    -0.6980    -0.9720 hc         1 0MP       0.043144
     51 H16         -6.6860     0.3990    -1.6490 hc         1 0MP       0.043144
     52 H17         -6.5580    -1.3120    -2.2320 hc         1 0MP       0.043144
     53 H18         -8.9730    -1.6430    -1.6790 hc         1 0MP       0.043144
     54 H19         -9.5800    -1.3310    -0.0000 hc         1 0MP       0.043144
     55 H20         -9.0900     0.0580    -1.0610 hc         1 0MP       0.043144
     56 H21         -5.1760     1.4620     0.4570 ha         1 0MP       0.156000
     57 H22         -2.7210     1.9900     0.5240 hx         1 0MP       0.115700
     58 H23         -3.4180     3.3010     2.3490 hn         1 0MP       0.450800
     59 H25         -1.4300     1.8770     4.0570 hx         1 0MP       0.137200
     60 H26         -3.2590     1.8230     4.2040 hx         1 0MP       0.137200
     61 H27         -1.4490     4.3720     4.5210 h1         1 0MP       0.083700
     62 H28         -3.3410     5.3860     4.4860 ho         1 0MP       0.452000
     63 H29         -1.1060     3.2280     6.5220 hx         1 0MP       0.111700
     64 H30         -2.7220     4.1030     8.1630 hn         1 0MP       0.478300
     65 H31         -0.6420     5.4090     8.8650 hc         1 0MP       0.128033
     66 H32         -2.0790     6.5090     9.1080 hc         1 0MP       0.128033
     67 H33         -0.6310     7.0980     8.1730 hc         1 0MP       0.128033
     68 H34         -3.9910     2.0780     6.3070 hc         1 0MP       0.097200
     69 H35         -2.4090     1.2010     6.1140 hc         1 0MP       0.097200
     70 H36         -4.9000     2.4770     8.4850 ha         1 0MP       0.141000
     71 H37         -4.8550     1.9500    10.9200 ha         1 0MP       0.181500
     72 H38         -0.8410     0.3460    10.4900 ha         1 0MP       0.181500
     73 H39         -0.8890     0.8890     8.0570 ha         1 0MP       0.141000
     74 H292        -1.7610     3.3730     2.1560 hn         1 0MP       0.450800
     75 H272        -3.6730     4.6770     6.9100 hn         1 0MP       0.478300
@<TRIPOS>BOND
     1     1     2 1   
     2     1     4 1   
     3     1    36 1   
     4     1    37 1   
     5     2     3 1   
     6     2    38 1   
     7     2    39 1   
     8     3     4 1   
     9     3    40 1   
    10     3    41 1   
    11     4     5 1   
    12     4     6 1   
    13     5    18 1   
    14     5    42 1   
    15     5    43 1   
    16     6     7 1   
    17     7     8 ar  
    18     7    17 ar  
    19     8     9 ar  
    20     9    10 ar  
    21     9    44 1   
    22    10    11 1   
    23    10    16 ar  
    24    11    12 1   
    25    11    45 1   
    26    11    46 1   
    27    12    13 1   
    28    12    14 1   
    29    12    15 1   
    30    13    47 1   
    31    13    48 1   
    32    13    49 1   
    33    14    50 1   
    34    14    51 1   
    35    14    52 1   
    36    15    53 1   
    37    15    54 1   
    38    15    55 1   
    39    16    17 ar  
    40    16    56 1   
    41    17    18 1   
    42    18    19 1   
    43    18    57 1   
    44    19    20 1   
    45    19    58 1   
    46    19    74 1   
    47    20    21 1   
    48    20    59 1   
    49    20    60 1   
    50    21    22 1   
    51    21    23 1   
    52    21    61 1   
    53    22    62 1   
    54    23    24 1   
    55    23    28 1   
    56    23    63 1   
    57    24    25 1   
    58    24    64 1   
    59    24    75 1   
    60    25    26 1   
    61    25    27 2   
    62    26    65 1   
    63    26    66 1   
    64    26    67 1   
    65    28    29 1   
    66    28    68 1   
    67    28    69 1   
    68    29    30 ar  
    69    29    35 ar  
    70    30    31 ar  
    71    30    70 1   
    72    31    32 ar  
    73    31    71 1   
    74    32    33 1   
    75    32    34 ar  
    76    34    35 ar  
    77    34    72 1   
    78    35    73 1   
@<TRIPOS>SUBSTRUCTURE
     1 0MP         1 TEMP              0 ****  ****    0 ROOT
