@<TRIPOS>MOLECULE
molecule
   32    32     1     0     0
SMALL
bcc


@<TRIPOS>ATOM
      1 O6           0.0000     0.0000     0.0000 o          1 0MQ      -0.954500
      2 P2           1.6100     0.0000     0.0000 p5         1 0MQ       1.141700
      3 O4           2.1460     0.0000     1.5180 o          1 0MQ      -0.954500
      4 O5           2.1030    -1.2090    -0.6960 o          1 0MQ      -0.954500
      5 C1           2.2180     1.4880    -0.8600 c3         1 0MQ      -0.409100
      6 P1           1.6100     2.9760    -0.0010 p5         1 0MQ       1.141700
      7 O3           2.1040     2.9770     1.3940 o          1 0MQ      -0.954500
      8 O2           2.1470     4.2900    -0.7610 o          1 0MQ      -0.954500
      9 O1          -0.0000     2.9770    -0.0030 o          1 0MQ      -0.954500
     10 C2           3.7480     1.4880    -0.8590 c3         1 0MQ       0.241800
     11 N1           4.2380     1.4880     0.5260 n7         1 0MQ      -0.751200
     12 C3           5.7060     1.4880     0.5650 c3         1 0MQ       0.180500
     13 C4           6.2190     2.9250     0.4520 c3         1 0MQ      -0.074900
     14 C5           7.7490     2.9240     0.4930 c3         1 0MQ      -0.084900
     15 C6           8.2230     2.3150     1.8140 c3         1 0MQ      -0.071400
     16 C7           7.7100     0.8790     1.9270 c3         1 0MQ      -0.084900
     17 C8           6.1800     0.8780     1.8860 c3         1 0MQ      -0.074900
     18 H3           1.8580     1.4870    -1.8820 hc         1 0MQ       0.019700
     19 H6           4.1090     2.3720    -1.3700 h1         1 0MQ      -0.044800
     20 H7           4.1090     0.6030    -1.3700 h1         1 0MQ      -0.044800
     21 H8           3.8910     0.6790     1.0020 hn         1 0MQ       0.438800
     22 H10          6.0940     0.9030    -0.2600 h1         1 0MQ      -0.039300
     23 H11          5.8370     3.5090     1.2810 hc         1 0MQ       0.063950
     24 H12          5.8850     3.3550    -0.4840 hc         1 0MQ       0.063950
     25 H13          8.1310     2.3350    -0.3320 hc         1 0MQ      -0.002550
     26 H14          8.1110     3.9420     0.4160 hc         1 0MQ      -0.002550
     27 H15          7.8370     2.9010     2.6400 hc         1 0MQ      -0.001300
     28 H16          9.3060     2.3140     1.8410 hc         1 0MQ      -0.001300
     29 H17          8.0450     0.4500     2.8640 hc         1 0MQ      -0.002550
     30 H18          8.0920     0.2940     1.0990 hc         1 0MQ      -0.002550
     31 H19          5.7980     1.4670     2.7120 hc         1 0MQ       0.063950
     32 H20          5.8180    -0.1400     1.9630 hc         1 0MQ       0.063950
@<TRIPOS>BOND
     1    14    15 1
     2    14    13 1
     3    15    16 1
     4    16    17 1
     5    13    12 1
     6    12    17 1
     7    12    11 1
     8     7     6 1
     9    10    11 1
    10    10     5 1
    11     9     6 1
    12     6     5 1
    13     6     8 1
    14     5     2 1
    15     4     2 1
    16     2     3 1
    17     2     1 1
    18     5    18 1
    19    10    19 1
    20    10    20 1
    21    11    21 1
    22    12    22 1
    23    13    23 1
    24    13    24 1
    25    14    25 1
    26    14    26 1
    27    15    27 1
    28    15    28 1
    29    16    29 1
    30    16    30 1
    31    17    31 1
    32    17    32 1
@<TRIPOS>SUBSTRUCTURE
     1 0MQ         1 TEMP              0 ****  ****    0 ROOT
