@<TRIPOS>MOLECULE
molecule
   33    33     1     0     0
SMALL
bcc


@<TRIPOS>ATOM
      1 O6           0.0000     0.0000     0.0000 o          1 0MQ      -0.863833
      2 P2           1.5090     0.0000     0.0000 p5         1 0MQ       1.292200
      3 O4           2.2430     0.0000     1.3130 o          1 0MQ      -0.863833
      4 O5           2.0220    -1.3010    -0.7940 o          1 0MQ      -0.863833
      5 C1           2.0510     1.4540    -0.9320 c3         1 0MQ      -0.587100
      6 P1           1.3730     1.3810    -2.6180 p5         1 0MQ       1.292200
      7 O3           0.9290     2.7780    -2.9700 o          1 0MQ      -0.863833
      8 O2           0.0640     0.4330    -2.5840 o          1 0MQ      -0.863833
      9 O1           2.3710     0.7130    -3.5360 o          1 0MQ      -0.863833
     10 C2           3.5730     1.4770    -0.9460 c3         1 0MQ       0.246800
     11 N1           4.0400     1.9110     0.3540 ny         1 0MQ      -1.059000
     12 C3           5.2530     2.7050     0.4690 c3         1 0MQ       0.200500
     13 C4           5.8110     2.5870     1.8870 c3         1 0MQ      -0.110400
     14 C5           7.1200     3.3610     2.0300 c3         1 0MQ      -0.062900
     15 C6           6.9030     4.8330     1.6820 c3         1 0MQ      -0.070400
     16 C7           6.2530     5.0210     0.3090 c3         1 0MQ      -0.062900
     17 C8           4.9900     4.1770     0.1460 c3         1 0MQ      -0.110400
     18 H3           1.6860     2.3480    -0.4400 hc         1 0MQ       0.079700
     19 H6           3.9190     2.1660    -1.7070 hx         1 0MQ       0.036700
     20 H7           3.9500     0.4830    -1.1560 hx         1 0MQ       0.036700
     21 H8           4.1720     1.0890     0.9090 hn         1 0MQ       0.364800
     22 H10          5.9910     2.3240    -0.2260 hx         1 0MQ       0.066700
     23 H11          5.9910     1.5420     2.1110 hc         1 0MQ       0.052950
     24 H12          5.0860     2.9850     2.5870 hc         1 0MQ       0.052950
     25 H13          7.4720     3.2830     3.0510 hc         1 0MQ       0.014950
     26 H14          7.8590     2.9400     1.3580 hc         1 0MQ       0.014950
     27 H15          7.8610     5.3370     1.6870 hc         1 0MQ      -0.004800
     28 H16          6.2630     5.2780     2.4340 hc         1 0MQ      -0.004800
     29 H17          5.9940     6.0660     0.1850 hc         1 0MQ       0.014950
     30 H18          6.9650     4.7370    -0.4560 hc         1 0MQ       0.014950
     31 H19          4.2260     4.5540     0.8150 hc         1 0MQ       0.052950
     32 H20          4.6430     4.2570    -0.8770 hc         1 0MQ       0.052950
     33 H121         3.2990     2.4370     0.7730 hn         1 0MQ       0.364800
@<TRIPOS>BOND
     1    14    15 1   
     2    14    13 1   
     3    15    16 1   
     4    16    17 1   
     5    13    12 1   
     6    12    17 1   
     7    12    11 1   
     8     7     6 1   
     9    10    11 1   
    10    10     5 1   
    11     9     6 1   
    12     6     5 1   
    13     6     8 1   
    14     5     2 1   
    15     4     2 1   
    16     2     3 1   
    17     2     1 1   
    18     5    18 1   
    19    10    19 1   
    20    10    20 1   
    21    11    21 1   
    22    12    22 1   
    23    13    23 1   
    24    13    24 1   
    25    14    25 1   
    26    14    26 1   
    27    15    27 1   
    28    15    28 1   
    29    16    29 1   
    30    16    30 1   
    31    17    31 1   
    32    17    32 1   
    33    33    11 1   
@<TRIPOS>SUBSTRUCTURE
     1 0MQ         1 TEMP              0 ****  ****    0 ROOT
