@<TRIPOS>MOLECULE
0MT
   48    52     1     0     0
SMALL
bcc


@<TRIPOS>ATOM
      1 CAO          0.0000     0.0000     0.0000 ca         1 0MT      -0.176000
      2 CAI          1.3770     0.0000     0.0000 ca         1 0MT      -0.051000
      3 CAW          2.0740     0.0000     1.2120 ca         1 0MT      -0.103600
      4 CAU          3.5490     0.0010     1.2160 c          1 0MT       0.971200
      5 OAD          4.2190     0.0020     2.3840 o          1 0MT      -0.880300
      6 OAA          4.1590     0.0020     0.1650 o          1 0MT      -0.880300
      7 CAJ          1.3700    -0.0010     2.4210 ca         1 0MT      -0.051000
      8 CAP         -0.0060    -0.0020     2.4130 ca         1 0MT      -0.176000
      9 CAZ         -0.6970     0.0040     1.2040 ca         1 0MT      -0.126400
     10 NBF         -2.0900     0.0040     1.2020 n          1 0MT       0.063000
     11 CAV         -2.8800    -0.0020     2.2900 c          1 0MT       0.671100
     12 OAB         -2.4810    -0.0070     3.4380 o          1 0MT      -0.669500
     13 CBC         -4.2930    -0.0010     1.8950 cc         1 0MT      -0.436900
     14 NAT         -5.5840    -0.0030     2.3410 na         1 0MT       0.659400
     15 NAS         -6.3930     0.0010     1.3410 nc         1 0MT      -0.668800
     16 CBB         -5.7280     0.0060     0.2020 cd         1 0MT       0.420800
     17 CAX         -6.3170     0.0130    -1.1590 ca         1 0MT      -0.088500
     18 CAK         -5.6870     0.7040    -2.1910 ca         1 0MT      -0.100000
     19 CAG         -6.2390     0.7070    -3.4560 ca         1 0MT      -0.111500
     20 CAF         -7.4160     0.0240    -3.7000 ca         1 0MT      -0.104000
     21 CAH         -8.0470    -0.6650    -2.6790 ca         1 0MT      -0.111500
     22 CAL         -7.5000    -0.6780    -1.4120 ca         1 0MT      -0.100000
     23 CBD         -4.3640     0.0060     0.5140 cd         1 0MT      -0.281600
     24 CBE         -2.9470     0.0150     0.0090 c3         1 0MT       0.158300
     25 CAY         -2.6910     1.2590    -0.8020 ca         1 0MT      -0.037300
     26 CAM         -2.4570     2.4640    -0.1650 ca         1 0MT      -0.104000
     27 CAQ         -2.2220     3.6060    -0.9090 ca         1 0MT      -0.008000
     28 CBA         -2.2210     3.5420    -2.2900 ca         1 0MT      -0.452200
     29 NBG         -1.9690     4.7640    -3.0870 no         1 0MT       1.053200
     30 OAE         -1.7640     5.8250    -2.5260 o          1 0MT      -0.456500
     31 OAC         -1.9690     4.7080    -4.3030 o          1 0MT      -0.456500
     32 CAR         -2.4540     2.3370    -2.9270 ca         1 0MT      -0.008000
     33 CAN         -2.6850     1.1950    -2.1830 ca         1 0MT      -0.104000
     34 H1          -0.5410    -0.0490    -0.9370 ha         1 0MT       0.121000
     35 H2           1.9180    -0.0510    -0.9370 ha         1 0MT       0.129000
     36 H4           1.9060     0.0580     3.3600 ha         1 0MT       0.129000
     37 H5          -0.5520    -0.0120     3.3480 ha         1 0MT       0.121000
     38 H6          -5.8600    -0.0080     3.3030 hn         1 0MT       0.134700
     39 H7          -4.8070     1.3020    -1.9840 ha         1 0MT       0.120500
     40 H8          -5.7560     1.2550    -4.2560 ha         1 0MT       0.101500
     41 H9          -7.8470     0.0290    -4.6940 ha         1 0MT       0.098000
     42 H10         -8.9710    -1.1960    -2.8760 ha         1 0MT       0.101500
     43 H11         -8.0990    -1.2960    -0.7540 ha         1 0MT       0.120500
     44 H12         -2.7610    -0.8700    -0.5880 h1         1 0MT       0.053700
     45 H13         -2.4580     2.5130     0.9170 ha         1 0MT       0.126500
     46 H14         -2.0390     4.5490    -0.4100 ha         1 0MT       0.131500
     47 H15         -2.4510     2.2880    -4.0090 ha         1 0MT       0.131500
     48 H16         -2.8670     0.2520    -2.6820 ha         1 0MT       0.126500
@<TRIPOS>BOND
     1     1     2 ar  
     2     1     9 ar  
     3     1    34 1   
     4     2     3 ar  
     5     2    35 1   
     6     3     4 1   
     7     3     7 ar  
     8     4     5 1   
     9     4     6 1   
    10     7     8 ar  
    11     7    36 1   
    12     8     9 ar  
    13     8    37 1   
    14     9    10 1   
    15    10    11 1   
    16    10    24 1   
    17    11    12 2   
    18    11    13 1   
    19    13    14 1   
    20    13    23 2   
    21    14    15 1   
    22    14    38 1   
    23    15    16 2   
    24    16    17 1   
    25    16    23 1   
    26    17    18 ar  
    27    17    22 ar  
    28    18    19 ar  
    29    18    39 1   
    30    19    20 ar  
    31    19    40 1   
    32    20    21 ar  
    33    20    41 1   
    34    21    22 ar  
    35    21    42 1   
    36    22    43 1   
    37    23    24 1   
    38    24    25 1   
    39    24    44 1   
    40    25    26 ar  
    41    25    33 ar  
    42    26    27 ar  
    43    26    45 1   
    44    27    28 ar  
    45    27    46 1   
    46    28    29 1   
    47    28    32 ar  
    48    29    30 1   
    49    29    31 1   
    50    32    33 ar  
    51    32    47 1   
    52    33    48 1   
@<TRIPOS>SUBSTRUCTURE
     1 0MT         1 TEMP              0 ****  ****    0 ROOT
