@<TRIPOS>MOLECULE
molecule
   48    52     1     0     0
SMALL
bcc


@<TRIPOS>ATOM
      1 CAO          0.0000     0.0000     0.0000 ca         1 0MT      -0.186500
      2 CAI          1.3770     0.0000     0.0000 ca         1 0MT      -0.080500
      3 CAW          2.0740     0.0000     1.2120 ca         1 0MT      -0.108600
      4 CAU          3.5490     0.0010     1.2160 c          1 0MT       0.881200
      5 OAD          4.2190     0.0020     2.3840 o          1 0MT      -0.832800
      6 OAA          4.1590     0.0020     0.1650 o          1 0MT      -0.832800
      7 CAJ          1.3700    -0.0010     2.4210 ca         1 0MT      -0.080500
      8 CAP         -0.0060    -0.0020     2.4130 ca         1 0MT      -0.186500
      9 CAZ         -0.6970     0.0040     1.2040 ca         1 0MT       0.023600
     10 NBF         -2.0900     0.0040     1.2020 n          1 0MT      -0.343000
     11 CAV         -2.8800    -0.0020     2.2900 c          1 0MT       0.737100
     12 OAB         -2.4810    -0.0070     3.4380 o          1 0MT      -0.615500
     13 CBC         -4.2930    -0.0010     1.8950 cc         1 0MT      -0.213900
     14 NAT         -5.5840    -0.0030     2.3410 na         1 0MT       0.084400
     15 NAS         -6.3930     0.0010     1.3410 nd         1 0MT      -0.505800
     16 CBB         -5.7280     0.0060     0.2020 cc         1 0MT       0.400800
     17 CAX         -6.3170     0.0130    -1.1590 ca         1 0MT      -0.095500
     18 CAK         -5.6870     0.7040    -2.1910 ca         1 0MT      -0.112000
     19 CAG         -6.2390     0.7070    -3.4560 ca         1 0MT      -0.138000
     20 CAF         -7.4160     0.0240    -3.7000 ca         1 0MT      -0.127000
     21 CAH         -8.0470    -0.6650    -2.6790 ca         1 0MT      -0.138000
     22 CAL         -7.5000    -0.6780    -1.4120 ca         1 0MT      -0.112000
     23 CBD         -4.3640     0.0060     0.5140 cc         1 0MT      -0.270600
     24 CBE         -2.9470     0.0150     0.0090 c3         1 0MT       0.226300
     25 CAY         -2.6910     1.2590    -0.8020 ca         1 0MT      -0.046300
     26 CAM         -2.4570     2.4640    -0.1650 ca         1 0MT      -0.115500
     27 CAQ         -2.2220     3.6060    -0.9090 ca         1 0MT      -0.071000
     28 CBA         -2.2210     3.5420    -2.2900 ca         1 0MT      -0.154200
     29 NBG         -1.9690     4.7640    -3.0870 no         1 0MT       0.297200
     30 OAE         -1.7640     5.8250    -2.5260 o          1 0MT      -0.213000
     31 OAC         -1.9690     4.7080    -4.3030 o          1 0MT      -0.213000
     32 CAR         -2.4540     2.3370    -2.9270 ca         1 0MT      -0.071000
     33 CAN         -2.6850     1.1950    -2.1830 ca         1 0MT      -0.115500
     34 H1          -0.5410    -0.0490    -0.9370 ha         1 0MT       0.132500
     35 H2           1.9180    -0.0510    -0.9370 ha         1 0MT       0.158500
     36 H4           1.9060     0.0580     3.3600 ha         1 0MT       0.158500
     37 H5          -0.5520    -0.0120     3.3480 ha         1 0MT       0.132500
     38 H6          -5.8600    -0.0080     3.3030 hn         1 0MT       0.343700
     39 H7          -4.8070     1.3020    -1.9840 ha         1 0MT       0.144000
     40 H8          -5.7560     1.2550    -4.2560 ha         1 0MT       0.129500
     41 H9          -7.8470     0.0290    -4.6940 ha         1 0MT       0.125000
     42 H10         -8.9710    -1.1960    -2.8760 ha         1 0MT       0.129500
     43 H11         -8.0990    -1.2960    -0.7540 ha         1 0MT       0.144000
     44 H12         -2.7610    -0.8700    -0.5880 h1         1 0MT       0.089700
     45 H13         -2.4580     2.5130     0.9170 ha         1 0MT       0.156500
     46 H14         -2.0390     4.5490    -0.4100 ha         1 0MT       0.164500
     47 H15         -2.4510     2.2880    -4.0090 ha         1 0MT       0.164500
     48 H16         -2.8670     0.2520    -2.6820 ha         1 0MT       0.156500
@<TRIPOS>BOND
     1     6     4 1   
     2     7     8 ar  
     3     7     3 ar  
     4     4     5 1   
     5     4     3 1   
     6     8     9 ar  
     7     3     2 ar  
     8    19    18 ar  
     9    19    20 ar  
    10    26    27 ar  
    11    26    25 ar  
    12    27    28 ar  
    13    18    17 ar  
    14    20    21 ar  
    15     9    10 1   
    16     9     1 ar  
    17    24    25 1   
    18    24    10 1   
    19    24    23 1   
    20    25    33 ar  
    21     2     1 ar  
    22    10    11 1   
    23    31    29 1   
    24    17    16 1   
    25    17    22 ar  
    26    28    29 1   
    27    28    32 ar  
    28    21    22 ar  
    29    23    16 1   
    30    23    13 2   
    31    29    30 1   
    32    16    15 2   
    33    11    13 1   
    34    11    12 2   
    35    33    32 ar  
    36    13    14 1   
    37    15    14 1   
    38     1    34 1   
    39     2    35 1   
    40     7    36 1   
    41     8    37 1   
    42    14    38 1   
    43    18    39 1   
    44    19    40 1   
    45    20    41 1   
    46    21    42 1   
    47    22    43 1   
    48    24    44 1   
    49    26    45 1   
    50    27    46 1   
    51    32    47 1   
    52    33    48 1   
@<TRIPOS>SUBSTRUCTURE
     1 0MT         1 TEMP              0 ****  ****    0 ROOT
