@<TRIPOS>MOLECULE
0MT
   48    52     1     0     0
SMALL
bcc


@<TRIPOS>ATOM
      1 CAO          0.3730     0.3370     0.0650 ca         1 0MT      -0.161500
      2 CAI          1.7120     0.5030     0.4090 ca         1 0MT      -0.101500
      3 CAW          2.1290     0.4240     1.7390 ca         1 0MT      -0.117600
      4 CAU          3.6010     0.5790     2.1060 c          1 0MT       0.908200
      5 OAD          4.4180     0.8040     1.1720 o          1 0MT      -0.822300
      6 OAA          3.9130     0.4650     3.3250 o          1 0MT      -0.822300
      7 CAJ          1.1750     0.2000     2.7360 ca         1 0MT      -0.101500
      8 CAP         -0.1690     0.0410     2.4180 ca         1 0MT      -0.161500
      9 CAZ         -0.5850     0.0890     1.0700 ca         1 0MT      -0.008400
     10 NBF         -1.9420    -0.1200     0.7090 n          1 0MT      -0.367000
     11 CAV         -2.7320     0.8550     0.0680 c          1 0MT       0.751100
     12 OAB         -2.3550     1.8250    -0.5970 o          1 0MT      -0.590500
     13 CBC         -4.1380     0.4400     0.3170 cc         1 0MT      -0.192900
     14 NAT         -5.4380     0.8190     0.0840 na         1 0MT       0.064400
     15 NAS         -6.2930    -0.0110     0.6770 nc         1 0MT      -0.520800
     16 CBB         -5.5670    -0.9920     1.3350 cd         1 0MT       0.395800
     17 CAX         -6.1710    -2.0570     2.1170 ca         1 0MT      -0.117500
     18 CAK         -5.4470    -2.6410     3.1670 ca         1 0MT      -0.106500
     19 CAG         -6.0130    -3.6620     3.9260 ca         1 0MT      -0.135500
     20 CAF         -7.3050    -4.1090     3.6490 ca         1 0MT      -0.125000
     21 CAH         -8.0300    -3.5300     2.6080 ca         1 0MT      -0.135500
     22 CAL         -7.4710    -2.5070     1.8430 ca         1 0MT      -0.106500
     23 CBD         -4.1720    -0.7390     1.1220 cd         1 0MT      -0.261600
     24 CBE         -2.7570    -1.1540     1.4070 c3         1 0MT       0.232300
     25 CAY         -2.4140    -2.5500     0.9500 ca         1 0MT      -0.041300
     26 CAM         -1.1640    -3.0810     1.2940 ca         1 0MT      -0.118500
     27 CAQ         -0.8180    -4.3770     0.9230 ca         1 0MT      -0.073500
     28 CBA         -1.7400    -5.1490     0.1980 ca         1 0MT      -0.176200
     29 NBG         -1.3940    -6.5400    -0.1900 no         1 0MT       0.312200
     30 OAE         -2.1780    -7.1760    -0.8470 o          1 0MT      -0.218500
     31 OAC         -0.3450    -7.0060     0.1640 o          1 0MT      -0.218500
     32 CAR         -2.9900    -4.6220    -0.1660 ca         1 0MT      -0.073500
     33 CAN         -3.3150    -3.3220     0.2110 ca         1 0MT      -0.118500
     34 H1           0.0600     0.4180    -0.9860 ha         1 0MT       0.119500
     35 H2           2.4730     0.6990    -0.3660 ha         1 0MT       0.160000
     36 H4           1.5190     0.1570     3.7840 ha         1 0MT       0.160000
     37 H5          -0.8950    -0.1130     3.2290 ha         1 0MT       0.119500
     38 H6          -5.7610     1.6070    -0.4310 hn         1 0MT       0.337700
     39 H7          -4.4270    -2.2890     3.3870 ha         1 0MT       0.141500
     40 H8          -5.4380    -4.1160     4.7470 ha         1 0MT       0.131500
     41 H9          -7.7490    -4.9160     4.2480 ha         1 0MT       0.129000
     42 H10         -9.0490    -3.8800     2.3870 ha         1 0MT       0.131500
     43 H11         -8.0520    -2.0560     1.0250 ha         1 0MT       0.141500
     44 H12         -2.5620    -1.0980     2.5210 h1         1 0MT       0.083700
     45 H13         -0.4380    -2.4560     1.8470 ha         1 0MT       0.168000
     46 H14          0.1710    -4.7880     1.1910 ha         1 0MT       0.170000
     47 H15         -3.7040    -5.2300    -0.7460 ha         1 0MT       0.170000
     48 H16         -4.2950    -2.9070    -0.0750 ha         1 0MT       0.168000
@<TRIPOS>BOND
     1     1     2 ar  
     2     1     9 ar  
     3     1    34 1   
     4     2     3 ar  
     5     2    35 1   
     6     3     4 1   
     7     3     7 ar  
     8     4     5 1   
     9     4     6 1   
    10     7     8 ar  
    11     7    36 1   
    12     8     9 ar  
    13     8    37 1   
    14     9    10 1   
    15    10    11 1   
    16    10    24 1   
    17    11    12 2   
    18    11    13 1   
    19    13    14 1   
    20    13    23 2   
    21    14    15 1   
    22    14    38 1   
    23    15    16 2   
    24    16    17 1   
    25    16    23 1   
    26    17    18 ar  
    27    17    22 ar  
    28    18    19 ar  
    29    18    39 1   
    30    19    20 ar  
    31    19    40 1   
    32    20    21 ar  
    33    20    41 1   
    34    21    22 ar  
    35    21    42 1   
    36    22    43 1   
    37    23    24 1   
    38    24    25 1   
    39    24    44 1   
    40    25    26 ar  
    41    25    33 ar  
    42    26    27 ar  
    43    26    45 1   
    44    27    28 ar  
    45    27    46 1   
    46    28    29 1   
    47    28    32 ar  
    48    29    30 1   
    49    29    31 1   
    50    32    33 ar  
    51    32    47 1   
    52    33    48 1   
@<TRIPOS>SUBSTRUCTURE
     1 0MT         1 TEMP              0 ****  ****    0 ROOT
