@<TRIPOS>MOLECULE
0MV
   38    41     1     0     0
SMALL
bcc


@<TRIPOS>ATOM
      1 O            0.0000     0.0000     0.0000 o          1 0MV      -0.665500
      2 C            1.2130     0.0000     0.0000 c          1 0MV       0.580500
      3 NAM          1.8580     0.0000     1.1630 ns         1 0MV      -0.011100
      4 CAS          3.2310    -0.0490     1.3210 ca         1 0MV      -0.068400
      5 CAG          3.7290    -0.8610     2.3440 ca         1 0MV      -0.142000
      6 CAC          5.0850    -0.9580     2.5670 ca         1 0MV      -0.057000
      7 CAD          5.9720    -0.2480     1.7760 ca         1 0MV      -0.119000
      8 CAH          5.5030     0.5550     0.7640 ca         1 0MV      -0.032000
      9 CAT          4.1230     0.6630     0.5210 ca         1 0MV      -0.154600
     10 CAP          3.6940     1.5320    -0.5820 c          1 0MV       0.627100
     11 OAA          4.2780     2.5870    -0.7320 o          1 0MV      -0.686500
     12 N            2.7090     1.2410    -1.4300 ns         1 0MV      -0.151900
     13 CA           1.9420    -0.0060    -1.3150 c3         1 0MV      -0.049300
     14 CB           2.8930    -1.2040    -1.3680 c3         1 0MV       0.023800
     15 CG           3.5320    -1.2780    -2.7310 cc         1 0MV      -0.166400
     16 CD2          4.7310    -0.5610    -3.1720 ca         1 0MV      -0.092800
     17 CE3          5.6040     0.3390    -2.5580 ca         1 0MV      -0.083000
     18 CZ3          6.6610     0.8460    -3.2600 ca         1 0MV      -0.115000
     19 CH2          6.8750     0.4700    -4.5800 ca         1 0MV      -0.084000
     20 CZ2          6.0260    -0.4160    -5.2050 ca         1 0MV      -0.102000
     21 CE2          4.9430    -0.9430    -4.5090 ca         1 0MV      -0.228200
     22 NE1          3.9410    -1.8260    -4.8420 na         1 0MV       0.359600
     23 CD1          3.1130    -2.0170    -3.7700 cd         1 0MV      -0.257100
     24 H1           1.3020     0.0390     1.9940 hn         1 0MV       0.180500
     25 H2           3.0420    -1.4200     2.9670 ha         1 0MV       0.114000
     26 H3           5.4570    -1.5910     3.3640 ha         1 0MV       0.106000
     27 H4           7.0380    -0.3270     1.9540 ha         1 0MV       0.111000
     28 H5           6.2020     1.1080     0.1490 ha         1 0MV       0.131000
     29 H6           2.4860     1.8870    -2.1610 hn         1 0MV       0.196500
     30 H7           1.2270    -0.0670    -2.1260 h1         1 0MV       0.069700
     31 H8           3.6630    -1.0880    -0.6140 hc         1 0MV       0.039700
     32 H9           2.3370    -2.1150    -1.1800 hc         1 0MV       0.039700
     33 H10          5.4430     0.6360    -1.5290 ha         1 0MV       0.126000
     34 H11          7.3380     1.5440    -2.7830 ha         1 0MV       0.106000
     35 H12          7.7170     0.8800    -5.1240 ha         1 0MV       0.101000
     36 H13          6.2010    -0.7020    -6.2350 ha         1 0MV       0.099000
     37 H14          3.8370    -2.2670    -5.7350 hn         1 0MV       0.114700
     38 H15          2.2480    -2.6690    -3.7610 h4         1 0MV       0.142000
@<TRIPOS>BOND
     1     1     2 2   
     2     2     3 1   
     3     2    13 1   
     4     3     4 1   
     5     3    24 1   
     6     4     5 ar  
     7     4     9 ar  
     8     5     6 ar  
     9     5    25 1   
    10     6     7 ar  
    11     6    26 1   
    12     7     8 ar  
    13     7    27 1   
    14     8     9 ar  
    15     8    28 1   
    16     9    10 1   
    17    10    11 2   
    18    10    12 1   
    19    12    13 1   
    20    12    29 1   
    21    13    14 1   
    22    13    30 1   
    23    14    15 1   
    24    14    31 1   
    25    14    32 1   
    26    15    16 1   
    27    15    23 2   
    28    16    17 ar  
    29    16    21 ar  
    30    17    18 ar  
    31    17    33 1   
    32    18    19 ar  
    33    18    34 1   
    34    19    20 ar  
    35    19    35 1   
    36    20    21 ar  
    37    20    36 1   
    38    21    22 1   
    39    22    23 1   
    40    22    37 1   
    41    23    38 1   
@<TRIPOS>SUBSTRUCTURE
     1 0MV         1 TEMP              0 ****  ****    0 ROOT
