@<TRIPOS>MOLECULE
molecule
   38    41     1     0     0
SMALL
bcc


@<TRIPOS>ATOM
      1 O            0.0000     0.0000     0.0000 o          1 0MV      -0.626500
      2 C            1.2130     0.0000     0.0000 c          1 0MV       0.687500
      3 NAM          1.8580     0.0000     1.1630 ns         1 0MV      -0.461100
      4 CAS          3.2310    -0.0490     1.3210 ca         1 0MV       0.080600
      5 CAG          3.7290    -0.8610     2.3440 ca         1 0MV      -0.171000
      6 CAC          5.0850    -0.9580     2.5670 ca         1 0MV      -0.086000
      7 CAD          5.9720    -0.2480     1.7760 ca         1 0MV      -0.150000
      8 CAH          5.5030     0.5550     0.7640 ca         1 0MV      -0.061000
      9 CAT          4.1230     0.6630     0.5210 ca         1 0MV      -0.161600
     10 CAP          3.6940     1.5320    -0.5820 c          1 0MV       0.712100
     11 OAA          4.2780     2.5870    -0.7320 o          1 0MV      -0.644500
     12 N            2.7090     1.2410    -1.4300 ns         1 0MV      -0.554900
     13 CA           1.9420    -0.0060    -1.3150 c3         1 0MV       0.045700
     14 CB           2.8930    -1.2040    -1.3680 c3         1 0MV      -0.030200
     15 CG           3.5320    -1.2780    -2.7310 cc         1 0MV      -0.163400
     16 CD2          4.7310    -0.5610    -3.1720 ca         1 0MV      -0.095800
     17 CE3          5.6040     0.3390    -2.5580 ca         1 0MV      -0.086000
     18 CZ3          6.6610     0.8460    -3.2600 ca         1 0MV      -0.149000
     19 CH2          6.8750     0.4700    -4.5800 ca         1 0MV      -0.106000
     20 CZ2          6.0260    -0.4160    -5.2050 ca         1 0MV      -0.145000
     21 CE2          4.9430    -0.9430    -4.5090 ca         1 0MV      -0.039200
     22 NE1          3.9410    -1.8260    -4.8420 na         1 0MV      -0.180400
     23 CD1          3.1130    -2.0170    -3.7700 cd         1 0MV      -0.093100
     24 H1           1.3020     0.0390     1.9940 hn         1 0MV       0.337500
     25 H2           3.0420    -1.4200     2.9670 ha         1 0MV       0.139000
     26 H3           5.4570    -1.5910     3.3640 ha         1 0MV       0.138000
     27 H4           7.0380    -0.3270     1.9540 ha         1 0MV       0.141000
     28 H5           6.2020     1.1080     0.1490 ha         1 0MV       0.158000
     29 H6           2.4860     1.8870    -2.1610 hn         1 0MV       0.344500
     30 H7           1.2270    -0.0670    -2.1260 h1         1 0MV       0.101700
     31 H8           3.6630    -1.0880    -0.6140 hc         1 0MV       0.066700
     32 H9           2.3370    -2.1150    -1.1800 hc         1 0MV       0.066700
     33 H10          5.4430     0.6360    -1.5290 ha         1 0MV       0.138000
     34 H11          7.3380     1.5440    -2.7830 ha         1 0MV       0.133000
     35 H12          7.7170     0.8800    -5.1240 ha         1 0MV       0.130000
     36 H13          6.2010    -0.7020    -6.2350 ha         1 0MV       0.125000
     37 H14          3.8370    -2.2670    -5.7350 hn         1 0MV       0.297700
     38 H15          2.2480    -2.6690    -3.7610 h4         1 0MV       0.166000
@<TRIPOS>BOND
     1     1     2 2
     2    18    17 ar
     3    18    19 ar
     4    17    16 ar
     5     2     3 1
     6     2    13 1
     7     3     4 1
     8     5     4 ar
     9     5     6 ar
    10    14    13 1
    11    14    15 1
    12    19    20 ar
    13    13    12 1
    14    16    15 1
    15    16    21 ar
    16     4     9 ar
    17     6     7 ar
    18    15    23 2
    19    20    21 ar
    20    21    22 1
    21    23    22 1
    22     9     8 ar
    23     9    10 1
    24     7     8 ar
    25    12    10 1
    26    10    11 2
    27     3    24 1
    28     5    25 1
    29     6    26 1
    30     7    27 1
    31     8    28 1
    32    12    29 1
    33    13    30 1
    34    14    31 1
    35    14    32 1
    36    17    33 1
    37    18    34 1
    38    19    35 1
    39    20    36 1
    40    22    37 1
    41    23    38 1
@<TRIPOS>SUBSTRUCTURE
     1 0MV         1 TEMP              0 ****  ****    0 ROOT
