@<TRIPOS>MOLECULE
0MV
   38    41     1     0     0
SMALL
bcc


@<TRIPOS>ATOM
      1 O            0.0560     0.2740     0.0270 o          1 0MV      -0.619500
      2 C            1.2810     0.0840     0.1130 c          1 0MV       0.676500
      3 NAM          1.8440    -0.0860     1.3710 ns         1 0MV      -0.472100
      4 CAS          3.2180    -0.0940     1.6530 ca         1 0MV       0.093600
      5 CAG          3.6740     0.6150     2.7950 ca         1 0MV      -0.181000
      6 CAC          5.0180     0.6150     3.1410 ca         1 0MV      -0.083000
      7 CAD          5.9470    -0.0860     2.3720 ca         1 0MV      -0.158000
      8 CAH          5.5170    -0.8000     1.2600 ca         1 0MV      -0.057000
      9 CAT          4.1640    -0.8140     0.8890 ca         1 0MV      -0.162600
     10 CAP          3.8170    -1.6690    -0.2770 c          1 0MV       0.718100
     11 OAA          4.3760    -2.7700    -0.4670 o          1 0MV      -0.640500
     12 N            2.8800    -1.2430    -1.1940 ns         1 0MV      -0.561900
     13 CA           2.2050     0.0200    -1.1210 c3         1 0MV       0.057700
     14 CB           1.3550     0.3220    -2.3720 c3         1 0MV      -0.006200
     15 CG           2.1580     0.3250    -3.5990 cc         1 0MV      -0.156400
     16 CD2          2.8500     1.4620    -4.1710 ca         1 0MV      -0.085800
     17 CE3          2.9900     2.8020    -3.8050 ca         1 0MV      -0.086000
     18 CZ3          3.7450     3.6420    -4.6090 ca         1 0MV      -0.153000
     19 CH2          4.3680     3.1700    -5.7790 ca         1 0MV      -0.112000
     20 CZ2          4.2530     1.8490    -6.1810 ca         1 0MV      -0.142000
     21 CE2          3.4900     0.9870    -5.3780 ca         1 0MV      -0.046200
     22 NE1          3.1890    -0.3710    -5.5210 na         1 0MV      -0.187400
     23 CD1          2.3890    -0.7610    -4.4470 cd         1 0MV      -0.096100
     24 H1           1.2380     0.0520     2.1530 hn         1 0MV       0.327500
     25 H2           2.9570     1.1710     3.4190 ha         1 0MV       0.140000
     26 H3           5.3500     1.1740     4.0290 ha         1 0MV       0.139000
     27 H4           7.0110    -0.0830     2.6480 ha         1 0MV       0.143000
     28 H5           6.2330    -1.3860     0.6590 ha         1 0MV       0.159000
     29 H6           2.6810    -1.8280    -1.9740 hn         1 0MV       0.329500
     30 H7           2.9710     0.8480    -1.0050 h1         1 0MV       0.076700
     31 H8           0.8830     1.3300    -2.2160 hc         1 0MV       0.074700
     32 H9           0.5210    -0.4270    -2.4450 hc         1 0MV       0.074700
     33 H10          2.5020     3.1770    -2.8940 ha         1 0MV       0.133000
     34 H11          3.8640     4.7000    -4.3330 ha         1 0MV       0.131000
     35 H12          4.9590     3.8710    -6.3870 ha         1 0MV       0.131000
     36 H13          4.7400     1.4880    -7.0960 ha         1 0MV       0.133000
     37 H14          3.5050    -0.9530    -6.2490 hn         1 0MV       0.301700
     38 H15          2.0300    -1.7890    -4.3660 h4         1 0MV       0.167000
@<TRIPOS>BOND
     1     1     2 2   
     2     2     3 1   
     3     2    13 1   
     4     3     4 1   
     5     3    24 1   
     6     4     5 ar  
     7     4     9 ar  
     8     5     6 ar  
     9     5    25 1   
    10     6     7 ar  
    11     6    26 1   
    12     7     8 ar  
    13     7    27 1   
    14     8     9 ar  
    15     8    28 1   
    16     9    10 1   
    17    10    11 2   
    18    10    12 1   
    19    12    13 1   
    20    12    29 1   
    21    13    14 1   
    22    13    30 1   
    23    14    15 1   
    24    14    31 1   
    25    14    32 1   
    26    15    16 1   
    27    15    23 2   
    28    16    17 ar  
    29    16    21 ar  
    30    17    18 ar  
    31    17    33 1   
    32    18    19 ar  
    33    18    34 1   
    34    19    20 ar  
    35    19    35 1   
    36    20    21 ar  
    37    20    36 1   
    38    21    22 1   
    39    22    23 1   
    40    22    37 1   
    41    23    38 1   
@<TRIPOS>SUBSTRUCTURE
     1 0MV         1 TEMP              0 ****  ****    0 ROOT
