@<TRIPOS>MOLECULE
0MW
   34    33     1     0     0
SMALL
bcc


@<TRIPOS>ATOM
      1 O1           0.0000     0.0000     0.0000 o          1 0MW      -0.775167
      2 P1           1.4800     0.0000     0.0000 p5         1 0MW       0.460200
      3 O2           2.0180     0.0000     1.5170 o          1 0MW      -0.775167
      4 O3           2.0170    -1.3140    -0.7610 o          1 0MW      -0.775167
      5 C9           2.0880     1.4890    -0.8590 c3         1 0MW       0.011900
      6 P2           3.9100     1.4880    -0.8610 p5         1 0MW       0.460200
      7 O5           4.4460     0.1750    -1.6200 o          1 0MW      -0.775167
      8 O4           4.4040     2.6970    -1.5580 o          1 0MW      -0.775167
      9 O6           4.4480     1.4870     0.6580 o          1 0MW      -0.775167
     10 C8           1.5770     1.4900    -2.3030 c3         1 0MW       0.247800
     11 N1           2.0660     0.2910    -2.9950 n7         1 0MW      -0.566200
     12 C7           1.5940     0.2580    -4.3860 c3         1 0MW       0.146800
     13 C6           2.1230    -1.0030    -5.0740 c3         1 0MW      -0.035400
     14 C5           1.6320    -1.0370    -6.5230 c3         1 0MW      -0.037400
     15 C4           2.1600    -2.2980    -7.2100 c3         1 0MW      -0.033400
     16 C3           1.6690    -2.3320    -8.6590 c3         1 0MW      -0.038400
     17 C2           2.1970    -3.5930    -9.3470 c3         1 0MW      -0.010100
     18 H3           1.7270     2.3740    -0.3480 hc         1 0MW      -0.013300
     19 H6           0.4940     1.4910    -2.3020 h1         1 0MW      -0.080300
     20 H7           1.9380     2.3750    -2.8130 h1         1 0MW      -0.080300
     21 H8           3.0670     0.2830    -2.9830 hn         1 0MW       0.359800
     22 H10          1.9550     1.1340    -4.9110 h1         1 0MW      -0.060300
     23 H11          0.5110     0.2490    -4.3990 h1         1 0MW      -0.060300
     24 H12          3.2060    -0.9950    -5.0600 hc         1 0MW       0.032200
     25 H13          1.7620    -1.8790    -4.5490 hc         1 0MW       0.032200
     26 H14          1.9930    -0.1610    -7.0470 hc         1 0MW      -0.009300
     27 H15          0.5480    -1.0450    -6.5370 hc         1 0MW      -0.009300
     28 H16          1.7990    -3.1740    -6.6860 hc         1 0MW       0.013700
     29 H17          3.2430    -2.2890    -7.1960 hc         1 0MW       0.013700
     30 H18          2.0310    -1.4560    -9.1840 hc         1 0MW      -0.004800
     31 H19          0.5860    -2.3390    -8.6730 hc         1 0MW      -0.004800
     32 H20          1.8490    -3.6170   -10.3720 hc         1 0MW      -0.027967
     33 H21          1.8350    -4.4690    -8.8220 hc         1 0MW      -0.027967
     34 H22          3.2800    -3.5850    -9.3330 hc         1 0MW      -0.027967
@<TRIPOS>BOND
     1     1     2 1   
     2     2     3 1   
     3     2     4 1   
     4     2     5 1   
     5     5     6 1   
     6     5    10 1   
     7     5    18 1   
     8     6     7 1   
     9     6     8 1   
    10     6     9 1   
    11    10    11 1   
    12    10    19 1   
    13    10    20 1   
    14    11    12 1   
    15    11    21 1   
    16    12    13 1   
    17    12    22 1   
    18    12    23 1   
    19    13    14 1   
    20    13    24 1   
    21    13    25 1   
    22    14    15 1   
    23    14    26 1   
    24    14    27 1   
    25    15    16 1   
    26    15    28 1   
    27    15    29 1   
    28    16    17 1   
    29    16    30 1   
    30    16    31 1   
    31    17    32 1   
    32    17    33 1   
    33    17    34 1   
@<TRIPOS>SUBSTRUCTURE
     1 0MW         1 TEMP              0 ****  ****    0 ROOT
