@<TRIPOS>MOLECULE
molecule
   35    34     1     0     0
SMALL
bcc


@<TRIPOS>ATOM
      1 O1           0.0000     0.0000     0.0000 o          1 0MW      -0.864500
      2 P1           1.5130     0.0000     0.0000 p5         1 0MW       1.295200
      3 O2           2.0960     0.0000     1.3930 o          1 0MW      -0.864500
      4 O3           2.1230    -1.0290    -0.9220 o          1 0MW      -0.864500
      5 C9           1.8980     1.6360    -0.6860 c3         1 0MW      -0.602100
      6 P2           2.0170     1.4720    -2.4980 p5         1 0MW       1.295200
      7 O5           2.6650     2.7270    -3.0210 o          1 0MW      -0.864500
      8 O4           2.8460     0.2640    -2.7870 o          1 0MW      -0.864500
      9 O6           0.5640     1.3000    -2.8500 o          1 0MW      -0.864500
     10 C8           3.1410     2.2250    -0.0210 c3         1 0MW       0.250800
     11 N1           3.6170     3.4710    -0.6520 ny         1 0MW      -1.058000
     12 C7           3.1070     4.6560     0.0550 c3         1 0MW       0.189800
     13 C6           2.7390     5.7100    -0.9830 c3         1 0MW      -0.092400
     14 C5           2.9570     7.1290    -0.4660 c3         1 0MW      -0.048400
     15 C4           1.6150     7.6770    -0.0100 c3         1 0MW      -0.119400
     16 C3           1.5290     9.1930    -0.1260 c3         1 0MW      -0.062400
     17 C2           0.1210     9.6410     0.1970 c3         1 0MW      -0.091100
     18 H3           1.0640     2.2920    -0.4670 hc         1 0MW       0.079700
     19 H6           2.9130     2.4300     1.0180 hx         1 0MW       0.018700
     20 H7           3.9370     1.4910    -0.0630 hx         1 0MW       0.018700
     21 H8           4.6170     3.4850    -0.6360 hn         1 0MW       0.385800
     22 H10          2.2290     4.3880     0.6310 hx         1 0MW      -0.001800
     23 H11          3.8720     5.0450     0.7160 hx         1 0MW      -0.001800
     24 H12          3.3490     5.5610    -1.8660 hc         1 0MW       0.049700
     25 H13          1.6970     5.5910    -1.2510 hc         1 0MW       0.049700
     26 H14          3.6480     7.1120     0.3670 hc         1 0MW      -0.015300
     27 H15          3.3550     7.7500    -1.2600 hc         1 0MW      -0.015300
     28 H16          0.8330     7.2350    -0.6160 hc         1 0MW       0.100200
     29 H17          1.4570     7.3960     1.0240 hc         1 0MW       0.100200
     30 H18          1.7810     9.4930    -1.1360 hc         1 0MW      -0.000300
     31 H19          2.2220     9.6490     0.5710 hc         1 0MW      -0.000300
     32 H20         -0.1710     9.2450     1.1630 hc         1 0MW       0.025367
     33 H21          0.0840    10.7230     0.2240 hc         1 0MW       0.025367
     34 H22         -0.5580     9.2750    -0.5630 hc         1 0MW       0.025367
     35 H121         3.3170     3.4900    -1.6070 hn         1 0MW       0.385800
@<TRIPOS>BOND
     1    17    16 1   
     2    16    15 1   
     3    15    14 1   
     4    14    13 1   
     5    12    13 1   
     6    12    11 1   
     7     1     2 1   
     8     4     2 1   
     9    10     5 1   
    10    10    11 1   
    11     5     2 1   
    12     5     6 1   
    13     2     3 1   
    14     8     6 1   
    15     6     9 1   
    16     6     7 1   
    17     5    18 1   
    18    10    19 1   
    19    10    20 1   
    20    11    21 1   
    21    12    22 1   
    22    12    23 1   
    23    13    24 1   
    24    13    25 1   
    25    14    26 1   
    26    14    27 1   
    27    15    28 1   
    28    15    29 1   
    29    16    30 1   
    30    16    31 1   
    31    17    32 1   
    32    17    33 1   
    33    17    34 1   
    34    35    11 1   
@<TRIPOS>SUBSTRUCTURE
     1 0MW         1 TEMP              0 ****  ****    0 ROOT
