@<TRIPOS>MOLECULE
0MY
   42    45     1     0     0
SMALL
bcc


@<TRIPOS>ATOM
      1 O2           0.0000     0.0000     0.0000 o          1 0MY      -0.584300
      2 S1           1.4210     0.0000     0.0000 sy         1 0MY       1.038200
      3 O1           2.1980     0.0000     1.1900 o          1 0MY      -0.584300
      4 C14          1.9180    -1.4190    -0.9190 ca         1 0MY      -0.149500
      5 C17          3.1170    -2.0430    -0.6320 ca         1 0MY       0.011000
      6 C18          3.5070    -3.1570    -1.3540 ca         1 0MY      -0.070600
      7 Cl1          5.0140    -3.9420    -0.9920 cl         1 0MY      -0.013400
      8 C19          2.6970    -3.6450    -2.3620 ca         1 0MY      -0.046000
      9 C16          1.4970    -3.0210    -2.6480 ca         1 0MY      -0.124000
     10 C15          1.1060    -1.9110    -1.9230 ca         1 0MY       0.005000
     11 N4           1.8890     1.3330    -0.8630 nu         1 0MY      -0.414500
     12 C11          3.2450     1.5790    -1.0860 ca         1 0MY       0.026600
     13 C10          3.7990     1.3380    -2.3380 ca         1 0MY      -0.091000
     14 C9           5.1370     1.5790    -2.5600 ca         1 0MY      -0.105500
     15 C12          4.0400     2.0710    -0.0560 ca         1 0MY      -0.091000
     16 C13          5.3780     2.3160    -0.2740 ca         1 0MY      -0.105500
     17 C8           5.9360     2.0680    -1.5270 cp         1 0MY      -0.005000
     18 C1           7.3790     2.3290    -1.7630 cp         1 0MY      -0.099000
     19 C4           8.1700     2.8140    -0.7350 ca         1 0MY      -0.001000
     20 C6           9.5260     3.0560    -0.9670 ca         1 0MY      -0.285900
     21 C5          10.6250     3.5530    -0.1370 cc         1 0MY       0.501800
     22 N3          10.5400     3.9290     1.2050 nv         1 0MY      -0.468800
     23 N2          11.7000     3.5820    -0.8800 nd         1 0MY      -0.733100
     24 C7          10.0730     2.8070    -2.2410 ca         1 0MY      -0.159200
     25 N1          11.4030     3.1320    -2.1700 na         1 0MY       0.425900
     26 C3           9.2570     2.3180    -3.2600 ca         1 0MY      -0.131000
     27 C2           7.9360     2.0790    -3.0240 ca         1 0MY      -0.045000
     28 H17          3.7260    -1.6920     0.1920 ha         1 0MY       0.139000
     29 H19          3.0030    -4.5170    -2.9290 ha         1 0MY       0.113000
     30 H16          0.8610    -3.4040    -3.4370 ha         1 0MY       0.112000
     31 H15          0.1660    -1.4210    -2.1480 ha         1 0MY       0.121000
     32 HN4          1.2020     1.9780    -1.2000 hn         1 0MY       0.347800
     33 H10          3.1770     0.9580    -3.1410 ha         1 0MY       0.116000
     34 H9           5.5690     1.3890    -3.5350 ha         1 0MY       0.113000
     35 H12          3.6060     2.2640     0.9170 ha         1 0MY       0.116000
     36 H13          5.9970     2.6970     0.5290 ha         1 0MY       0.113000
     37 H4           7.7740     2.8730     0.2720 ha         1 0MY       0.106000
     38 HN3          9.6640     3.8740     1.6860 hn         1 0MY       0.270300
     39 HN3A        11.3550     4.2560     1.6860 hn         1 0MY       0.270300
     40 HN1         12.0580     3.0610    -2.9230 hn         1 0MY       0.149700
     41 H3           9.6750     2.1210    -4.2390 ha         1 0MY       0.105000
     42 H2           7.3110     1.6910    -3.8190 ha         1 0MY       0.108000
@<TRIPOS>BOND
     1     1     2 2   
     2     2     3 2   
     3     2     4 1   
     4     2    11 1   
     5     4     5 ar  
     6     4    10 ar  
     7     5     6 ar  
     8     5    28 1   
     9     6     7 1   
    10     6     8 ar  
    11     8     9 ar  
    12     8    29 1   
    13     9    10 ar  
    14     9    30 1   
    15    10    31 1   
    16    11    12 1   
    17    11    32 1   
    18    12    13 ar  
    19    12    15 ar  
    20    13    14 ar  
    21    13    33 1   
    22    14    17 ar  
    23    14    34 1   
    24    15    16 ar  
    25    15    35 1   
    26    16    17 ar  
    27    16    36 1   
    28    17    18 1   
    29    18    19 ar  
    30    18    27 ar  
    31    19    20 ar  
    32    19    37 1   
    33    20    21 1   
    34    20    24 ar  
    35    21    22 1   
    36    21    23 2   
    37    22    38 1   
    38    22    39 1   
    39    23    25 1   
    40    24    25 1   
    41    24    26 ar  
    42    25    40 1   
    43    26    27 ar  
    44    26    41 1   
    45    27    42 1   
@<TRIPOS>SUBSTRUCTURE
     1 0MY         1 TEMP              0 ****  ****    0 ROOT
