@<TRIPOS>MOLECULE
molecule
   42    45     1     0     0
SMALL
bcc


@<TRIPOS>ATOM
      1 O2           0.0000     0.0000     0.0000 o          1 0MY      -0.630800
      2 S1           1.4210     0.0000     0.0000 sy         1 0MY       1.423200
      3 O1           2.1980     0.0000     1.1900 o          1 0MY      -0.630800
      4 C14          1.9180    -1.4190    -0.9190 ca         1 0MY      -0.303500
      5 C17          3.1170    -2.0430    -0.6320 ca         1 0MY      -0.017000
      6 C18          3.5070    -3.1570    -1.3540 ca         1 0MY       0.004400
      7 Cl1          5.0140    -3.9420    -0.9920 cl         1 0MY      -0.098400
      8 C19          2.6970    -3.6450    -2.3620 ca         1 0MY      -0.070000
      9 C16          1.4970    -3.0210    -2.6480 ca         1 0MY      -0.144000
     10 C15          1.1060    -1.9110    -1.9230 ca         1 0MY      -0.029000
     11 N4           1.8890     1.3330    -0.8630 nu         1 0MY      -0.780500
     12 C11          3.2450     1.5790    -1.0860 ca         1 0MY       0.103600
     13 C10          3.7990     1.3380    -2.3380 ca         1 0MY      -0.112000
     14 C9           5.1370     1.5790    -2.5600 ca         1 0MY      -0.126500
     15 C12          4.0400     2.0710    -0.0560 ca         1 0MY      -0.112000
     16 C13          5.3780     2.3160    -0.2740 ca         1 0MY      -0.126500
     17 C8           5.9360     2.0680    -1.5270 cp         1 0MY      -0.007000
     18 C1           7.3790     2.3290    -1.7630 cp         1 0MY      -0.098000
     19 C4           8.1700     2.8140    -0.7350 ca         1 0MY      -0.033000
     20 C6           9.5260     3.0560    -0.9670 ca         1 0MY      -0.273900
     21 C5          10.6250     3.5530    -0.1370 cc         1 0MY       0.626800
     22 N3          10.5400     3.9290     1.2050 nv         1 0MY      -0.964800
     23 N2          11.7000     3.5820    -0.8800 nd         1 0MY      -0.585100
     24 C7          10.0730     2.8070    -2.2410 ca         1 0MY       0.006800
     25 N1          11.4030     3.1320    -2.1700 na         1 0MY      -0.047100
     26 C3           9.2570     2.3180    -3.2600 ca         1 0MY      -0.167000
     27 C2           7.9360     2.0790    -3.0240 ca         1 0MY      -0.065000
     28 H17          3.7260    -1.6920     0.1920 ha         1 0MY       0.169000
     29 H19          3.0030    -4.5170    -2.9290 ha         1 0MY       0.147000
     30 H16          0.8610    -3.4040    -3.4370 ha         1 0MY       0.143000
     31 H15          0.1660    -1.4210    -2.1480 ha         1 0MY       0.151000
     32 HN4          1.2020     1.9780    -1.2000 hn         1 0MY       0.464800
     33 H10          3.1770     0.9580    -3.1410 ha         1 0MY       0.144500
     34 H9           5.5690     1.3890    -3.5350 ha         1 0MY       0.137000
     35 H12          3.6060     2.2640     0.9170 ha         1 0MY       0.144500
     36 H13          5.9970     2.6970     0.5290 ha         1 0MY       0.137000
     37 H4           7.7740     2.8730     0.2720 ha         1 0MY       0.132000
     38 HN3          9.6640     3.8740     1.6860 hn         1 0MY       0.443800
     39 HN3A        11.3550     4.2560     1.6860 hn         1 0MY       0.443800
     40 HN1         12.0580     3.0610    -2.9230 hn         1 0MY       0.333700
     41 H3           9.6750     2.1210    -4.2390 ha         1 0MY       0.132000
     42 H2           7.3110     1.6910    -3.8190 ha         1 0MY       0.135000
@<TRIPOS>BOND
     1     1     2 2   
     2     2     3 2   
     3     2     4 1   
     4     2    11 1   
     5     4     5 ar  
     6     4    10 ar  
     7     5     6 ar  
     8     6     7 1   
     9     6     8 ar  
    10     8     9 ar  
    11     9    10 ar  
    12    11    12 1   
    13    12    13 ar  
    14    12    15 ar  
    15    13    14 ar  
    16    14    17 ar  
    17    15    16 ar  
    18    16    17 ar  
    19    17    18 1   
    20    18    19 ar  
    21    18    27 ar  
    22    19    20 ar  
    23    20    21 1   
    24    20    24 ar  
    25    21    22 1   
    26    21    23 2   
    27    23    25 1   
    28    24    25 1   
    29    24    26 ar  
    30    26    27 ar  
    31     5    28 1   
    32     8    29 1   
    33     9    30 1   
    34    10    31 1   
    35    11    32 1   
    36    13    33 1   
    37    14    34 1   
    38    15    35 1   
    39    16    36 1   
    40    19    37 1   
    41    22    38 1   
    42    22    39 1   
    43    25    40 1   
    44    26    41 1   
    45    27    42 1   
@<TRIPOS>SUBSTRUCTURE
     1 0MY         1 TEMP              0 ****  ****    0 ROOT
