@<TRIPOS>MOLECULE
0MY
   42    45     1     0     0
SMALL
bcc


@<TRIPOS>ATOM
      1 O2           0.1120     0.1960    -0.2830 o          1 0MY      -0.646300
      2 S1           1.5160     0.1210    -0.1540 sy         1 0MY       1.516200
      3 O1           2.0550     0.3190     1.1290 o          1 0MY      -0.646300
      4 C14          2.0300    -1.3830    -0.7270 ca         1 0MY      -0.376500
      5 C17          3.2500    -1.9260    -0.3100 ca         1 0MY      -0.007000
      6 C18          3.6540    -3.1820    -0.7690 ca         1 0MY      -0.011600
      7 Cl1          5.1380    -3.8290    -0.2570 cl         1 0MY      -0.076400
      8 C19          2.8430    -3.9110    -1.6460 ca         1 0MY      -0.061000
      9 C16          1.6240    -3.3740    -2.0560 ca         1 0MY      -0.148000
     10 C15          1.2220    -2.1210    -1.6000 ca         1 0MY      -0.018000
     11 N4           2.1410     1.1680    -1.2370 nu         1 0MY      -0.774500
     12 C11          3.4740     1.5830    -1.3930 ca         1 0MY       0.167600
     13 C10          3.9220     2.0520    -2.6490 ca         1 0MY      -0.175000
     14 C9           5.2350     2.4710    -2.8180 ca         1 0MY      -0.093000
     15 C12          4.3890     1.5580    -0.3180 ca         1 0MY      -0.175000
     16 C13          5.7020     1.9760    -0.5060 ca         1 0MY      -0.093000
     17 C8           6.1450     2.4360    -1.7530 cp         1 0MY      -0.054000
     18 C1           7.5260     2.8760    -1.9360 cp         1 0MY      -0.069000
     19 C4           8.1530     3.6420    -0.9470 ca         1 0MY      -0.048000
     20 C6           9.4660     4.0380    -1.1510 ca         1 0MY      -0.224900
     21 C5          10.4600     4.8270    -0.3890 cc         1 0MY       0.543800
     22 N3          10.2400     5.3100     0.8980 nv         1 0MY      -0.849800
     23 N2          11.6190     4.9110    -1.1060 nd         1 0MY      -0.589100
     24 C7          10.1660     3.6760    -2.3560 ca         1 0MY      -0.050200
     25 N1          11.4310     4.3080    -2.3040 na         1 0MY       0.006900
     26 C3           9.5330     2.9140    -3.3440 ca         1 0MY      -0.142000
     27 C2           8.2210     2.5240    -3.1150 ca         1 0MY      -0.085000
     28 H17          3.8850    -1.3590     0.3950 ha         1 0MY       0.167000
     29 H19          3.1630    -4.9010    -2.0070 ha         1 0MY       0.153000
     30 H16          0.9770    -3.9450    -2.7400 ha         1 0MY       0.148000
     31 H15          0.2460    -1.7080    -1.9130 ha         1 0MY       0.159000
     32 HN4          1.5370     1.5500    -1.9330 hn         1 0MY       0.455800
     33 H10          3.2310     2.0970    -3.5040 ha         1 0MY       0.151000
     34 H9           5.5620     2.8410    -3.8020 ha         1 0MY       0.140000
     35 H12          4.0750     1.2210     0.6860 ha         1 0MY       0.151000
     36 H13          6.4030     1.9410     0.3430 ha         1 0MY       0.140000
     37 H4           7.6160     3.9250    -0.0300 ha         1 0MY       0.142000
     38 HN3         10.9160     5.9730     1.2140 hn         1 0MY       0.396800
     39 HN3A         9.3000     5.6210     1.0270 hn         1 0MY       0.396800
     40 HN1         12.2390     3.8700    -2.6980 hn         1 0MY       0.295700
     41 H3          10.0550     2.6320    -4.2680 ha         1 0MY       0.143000
     42 H2           7.7040     1.9120    -3.8700 ha         1 0MY       0.137000
@<TRIPOS>BOND
     1     1     2 2   
     2     2     3 2   
     3     2     4 1   
     4     2    11 1   
     5     4     5 ar  
     6     4    10 ar  
     7     5     6 ar  
     8     5    28 1   
     9     6     7 1   
    10     6     8 ar  
    11     8     9 ar  
    12     8    29 1   
    13     9    10 ar  
    14     9    30 1   
    15    10    31 1   
    16    11    12 1   
    17    11    32 1   
    18    12    13 ar  
    19    12    15 ar  
    20    13    14 ar  
    21    13    33 1   
    22    14    17 ar  
    23    14    34 1   
    24    15    16 ar  
    25    15    35 1   
    26    16    17 ar  
    27    16    36 1   
    28    17    18 1   
    29    18    19 ar  
    30    18    27 ar  
    31    19    20 ar  
    32    19    37 1   
    33    20    21 1   
    34    20    24 ar  
    35    21    22 1   
    36    21    23 2   
    37    22    38 1   
    38    22    39 1   
    39    23    25 1   
    40    24    25 1   
    41    24    26 ar  
    42    25    40 1   
    43    26    27 ar  
    44    26    41 1   
    45    27    42 1   
@<TRIPOS>SUBSTRUCTURE
     1 0MY         1 TEMP              0 ****  ****    0 ROOT
