@<TRIPOS>MOLECULE
0MZ
   45    47     1     0     0
SMALL
bcc


@<TRIPOS>ATOM
      1 F28          0.6530    -2.1220     2.6190 f          1 0MZ      -0.237300
      2 C27          1.5360    -1.2990     1.9630 c3         1 0MZ       0.686200
      3 F30          2.7700    -1.7240     2.3960 f          1 0MZ      -0.237300
      4 F29          1.3710    -0.0780     2.5700 f          1 0MZ      -0.237300
      5 C25          1.3810    -1.2800     0.4460 ca         1 0MZ      -0.139300
      6 C26          0.9490    -2.4330    -0.2040 ca         1 0MZ      -0.141000
      7 C24          1.6880    -0.1210    -0.2660 ca         1 0MZ      -0.111000
      8 C23          1.5570    -0.1280    -1.6530 ca         1 0MZ      -0.108000
      9 C22          1.1280    -1.2660    -2.3300 ca         1 0MZ      -0.131000
     10 C21          0.8150    -2.4430    -1.6140 ca         1 0MZ       0.069600
     11 N18          0.3780    -3.6280    -2.2260 ns         1 0MZ      -0.471100
     12 C17          0.1470    -3.8420    -3.5760 c          1 0MZ       0.665100
     13 O19          0.3110    -2.9720    -4.4490 o          1 0MZ      -0.579100
     14 C16         -0.3550    -5.2280    -3.9650 c3         1 0MZ      -0.145400
     15 C13          0.5880    -6.3370    -3.5650 c3         1 0MZ      -0.064900
     16 C14          0.0790    -7.1840    -2.4120 c2         1 0MZ       0.601600
     17 O20         -0.1410    -6.4960    -1.2530 oh         1 0MZ      -0.582600
     18 N15         -0.1190    -8.4720    -2.5480 ne         1 0MZ      -0.670000
     19 C11          0.2020    -8.9030    -3.8740 ce         1 0MZ       0.637200
     20 S12          0.7740    -7.5430    -4.8840 ss         1 0MZ      -0.274300
     21 N10          0.0650   -10.1500    -4.2370 nf         1 0MZ      -0.337700
     22 N9           0.5150   -10.6030    -5.3990 nf         1 0MZ      -0.418700
     23 C8          -0.2700   -11.0740    -6.3270 ce         1 0MZ       0.505800
     24 C6           0.2610   -11.7340    -7.5220 ca         1 0MZ      -0.181900
     25 C5           1.6010   -12.1210    -7.6460 ca         1 0MZ      -0.050000
     26 C4           2.0570   -12.7560    -8.8000 ca         1 0MZ      -0.174000
     27 C3           1.1800   -13.0160    -9.8520 ca         1 0MZ      -0.070000
     28 C2          -0.1580   -12.6430    -9.7590 ca         1 0MZ      -0.223000
     29 C1          -0.6160   -12.0050    -8.5980 ca         1 0MZ       0.150100
     30 O1          -1.9270   -11.6130    -8.4540 oh         1 0MZ      -0.501100
     31 H26          0.7120    -3.3280     0.3950 ha         1 0MZ       0.149000
     32 H24          2.0230     0.7830     0.2640 ha         1 0MZ       0.153000
     33 H23          1.7950     0.7810    -2.2280 ha         1 0MZ       0.146000
     34 H22          1.0360    -1.2350    -3.4290 ha         1 0MZ       0.180000
     35 H1           0.1960    -4.3910    -1.6070 hn         1 0MZ       0.335500
     36 H161        -0.4780    -5.2250    -5.0850 hc         1 0MZ       0.099700
     37 H162        -1.3700    -5.3850    -3.5120 hc         1 0MZ       0.099700
     38 H13          1.6040    -5.9340    -3.3090 h1         1 0MZ       0.124700
     39 HO20        -0.4440    -7.1060    -0.5550 ho         1 0MZ       0.463000
     40 H8          -1.3830   -11.0090    -6.3000 h4         1 0MZ       0.017800
     41 H5           2.3060   -11.9230    -6.8210 ha         1 0MZ       0.159000
     42 H4           3.1130   -13.0530    -8.8780 ha         1 0MZ       0.141000
     43 H3           1.5430   -13.5180   -10.7620 ha         1 0MZ       0.137000
     44 H2          -0.8530   -12.8450   -10.5860 ha         1 0MZ       0.138000
     45 HO1         -2.4080   -11.8720    -9.2550 ho         1 0MZ       0.427000
@<TRIPOS>BOND
     1     1     2 1   
     2     2     3 1   
     3     2     4 1   
     4     2     5 1   
     5     5     6 ar  
     6     5     7 ar  
     7     6    10 ar  
     8     6    31 1   
     9     7     8 ar  
    10     7    32 1   
    11     8     9 ar  
    12     8    33 1   
    13     9    10 ar  
    14     9    34 1   
    15    10    11 1   
    16    11    12 1   
    17    11    35 1   
    18    12    13 2   
    19    12    14 1   
    20    14    15 1   
    21    14    36 1   
    22    14    37 1   
    23    15    16 1   
    24    15    20 1   
    25    15    38 1   
    26    16    17 1   
    27    16    18 2   
    28    17    39 1   
    29    18    19 1   
    30    19    20 1   
    31    19    21 2   
    32    21    22 1   
    33    22    23 2   
    34    23    24 1   
    35    23    40 1   
    36    24    25 ar  
    37    24    29 ar  
    38    25    26 ar  
    39    25    41 1   
    40    26    27 ar  
    41    26    42 1   
    42    27    28 ar  
    43    27    43 1   
    44    28    29 ar  
    45    28    44 1   
    46    29    30 1   
    47    30    45 1   
@<TRIPOS>SUBSTRUCTURE
     1 0MZ         1 TEMP              0 ****  ****    0 ROOT
