@<TRIPOS>MOLECULE
molecule
   45    47     1     0     0
SMALL
bcc


@<TRIPOS>ATOM
      1 F28          0.0000     0.0000     0.0000 f          1 0MZ      -0.223633
      2 C27          1.3990     0.0000     0.0000 c3         1 0MZ       0.675200
      3 F30          1.8650     0.0000     1.3190 f          1 0MZ      -0.223633
      4 F29          1.8660    -1.1420    -0.6590 f          1 0MZ      -0.223633
      5 C25          1.9010     1.2310    -0.7100 ca         1 0MZ      -0.163300
      6 C26          2.1320     2.3920     0.0010 ca         1 0MZ      -0.117000
      7 C24          2.1370     1.1940    -2.0720 ca         1 0MZ      -0.098000
      8 C23          2.5990     2.3210    -2.7280 ca         1 0MZ      -0.115000
      9 C22          2.8250     3.4870    -2.0230 ca         1 0MZ      -0.099000
     10 C21          2.5950     3.5260    -0.6540 ca         1 0MZ       0.052600
     11 N18          2.8230     4.7060     0.0620 ns         1 0MZ      -0.475100
     12 C17          2.6080     5.9010    -0.5220 c          1 0MZ       0.660100
     13 O19          2.1270     5.9550    -1.6350 o          1 0MZ      -0.584100
     14 C16          2.9660     7.1710     0.2060 c3         1 0MZ      -0.135400
     15 C13          2.6240     8.3770    -0.6720 c3         1 0MZ      -0.074900
     16 C14          2.8580     9.6710     0.0780 c2         1 0MZ       0.660600
     17 O20          2.1920     9.9930     1.2020 oh         1 0MZ      -0.559600
     18 N15          3.7400    10.4320    -0.4450 ne         1 0MZ      -0.744000
     19 C11          4.3960    10.0980    -1.5650 cf         1 0MZ       0.732200
     20 S12          3.7900     8.5090    -2.0720 ss         1 0MZ      -0.270300
     21 N10          5.3210    10.8170    -2.1770 ne         1 0MZ      -0.397700
     22 N9           5.8740    10.3740    -3.2540 ne         1 0MZ      -0.418700
     23 C8           6.7880    11.0850    -3.8610 cf         1 0MZ       0.511800
     24 C6           7.4190    10.5790    -5.0880 ca         1 0MZ      -0.177900
     25 C5           8.4010    11.3330    -5.7370 ca         1 0MZ      -0.072000
     26 C4           8.9930    10.8510    -6.8850 ca         1 0MZ      -0.168000
     27 C3           8.6180     9.6210    -7.3990 ca         1 0MZ      -0.076000
     28 C2           7.6470     8.8640    -6.7680 ca         1 0MZ      -0.222000
     29 C1           7.0420     9.3340    -5.6140 ca         1 0MZ       0.173100
     30 O1           6.0940     8.5880    -4.9910 oh         1 0MZ      -0.462100
     31 H26          1.9510     2.4190     1.0680 ha         1 0MZ       0.146000
     32 H24          1.9600     0.2810    -2.6270 ha         1 0MZ       0.147000
     33 H23          2.7810     2.2890    -3.7950 ha         1 0MZ       0.144000
     34 H22          3.1870     4.3700    -2.5360 ha         1 0MZ       0.169000
     35 H1           3.1610     4.6630     1.0030 hn         1 0MZ       0.329500
     36 H161         2.4050     7.2270     1.1310 hc         1 0MZ       0.083200
     37 H162         4.0270     7.1740     0.4260 hc         1 0MZ       0.083200
     38 H13          1.6030     8.3220    -1.0300 h1         1 0MZ       0.127700
     39 HO20         1.8560    10.8700     1.1280 ho         1 0MZ       0.454000
     40 H8           7.0810    12.0470    -3.4580 h4         1 0MZ      -0.006200
     41 H5           8.6970    12.2960    -5.3380 ha         1 0MZ       0.138000
     42 H4           9.7540    11.4360    -7.3870 ha         1 0MZ       0.135000
     43 H3           9.0880     9.2500    -8.3010 ha         1 0MZ       0.133000
     44 H2           7.3600     7.9030    -7.1770 ha         1 0MZ       0.136000
     45 HO1          5.6010     8.1050    -5.6340 ho         1 0MZ       0.418000
@<TRIPOS>BOND
     1     8     7 ar  
     2     8     9 ar  
     3     7     5 ar  
     4     4     2 1   
     5     9    10 ar  
     6     3     2 1   
     7     5     2 1   
     8     5     6 ar  
     9     2     1 1   
    10    10     6 ar  
    11    10    11 1   
    12    26    27 ar  
    13    26    25 ar  
    14    11    12 1   
    15    27    28 ar  
    16    25    24 ar  
    17    13    12 2   
    18    12    14 1   
    19    28    29 ar  
    20    20    15 1   
    21    20    19 1   
    22    15    14 1   
    23    15    16 1   
    24    24    29 ar  
    25    24    23 1   
    26    29    30 1   
    27    22    23 2   
    28    22    21 1   
    29    19    21 2   
    30    19    18 1   
    31    16    17 1   
    32    16    18 2   
    33     6    31 1   
    34     7    32 1   
    35     8    33 1   
    36     9    34 1   
    37    11    35 1   
    38    14    36 1   
    39    14    37 1   
    40    15    38 1   
    41    17    39 1   
    42    23    40 1   
    43    25    41 1   
    44    26    42 1   
    45    27    43 1   
    46    28    44 1   
    47    30    45 1   
@<TRIPOS>SUBSTRUCTURE
     1 0MZ         1 TEMP              0 ****  ****    0 ROOT
