@<TRIPOS>MOLECULE
0MZ
   45    48     1     0     0
SMALL
bcc


@<TRIPOS>ATOM
      1 F28          0.0000     0.0000     0.0000 f          1 0MZ      -0.136667
      2 C27          1.3990     0.0000     0.0000 c3         1 0MZ       0.419000
      3 F30          1.8650     0.0000     1.3190 f          1 0MZ      -0.136667
      4 F29          1.8660    -1.1420    -0.6590 f          1 0MZ      -0.136667
      5 C25          1.9010     1.2310    -0.7100 ca         1 0MZ      -0.186000
      6 C26          2.1320     2.3920     0.0010 ca         1 0MZ      -0.075000
      7 C24          2.1370     1.1940    -2.0720 ca         1 0MZ      -0.056000
      8 C23          2.5990     2.3210    -2.7280 ca         1 0MZ      -0.086000
      9 C22          2.8250     3.4870    -2.0230 ca         1 0MZ      -0.069000
     10 C21          2.5950     3.5260    -0.6540 ca         1 0MZ      -0.088000
     11 N18          2.8230     4.7060     0.0620 ns         1 0MZ       0.118000
     12 C17          2.6080     5.9010    -0.5220 c2         1 0MZ       0.202000
     13 O19          2.1270     5.9550    -1.6350 o          1 0MZ      -0.383000
     14 C16          2.9660     7.1710     0.2060 c3         1 0MZ      -0.106000
     15 C13          2.6240     8.3770    -0.6720 c3         1 0MZ      -0.146000
     16 C14          2.8580     9.6710     0.0780 c2         1 0MZ       0.086000
     17 O20          2.1920     9.9930     1.2020 oh         1 0MZ      -0.216000
     18 N15          3.7400    10.4320    -0.4450 n2         1 0MZ      -0.092000
     19 C11          4.3960    10.0980    -1.5650 c2         1 0MZ      -0.113000
     20 S12          3.7900     8.5090    -2.0720 ss         1 0MZ       0.060000
     21 N10          5.3210    10.8170    -2.1770 n2         1 0MZ       0.026000
     22 N9           5.8740    10.3740    -3.2540 n2         1 0MZ      -0.024000
     23 C8           6.7880    11.0850    -3.8610 c2         1 0MZ      -0.268000
     24 C6           7.4190    10.5790    -5.0880 c3         1 0MZ      -0.216000
     25 C5           8.4010    11.3330    -5.7370 c2         1 0MZ       0.018000
     26 C4           8.9930    10.8510    -6.8850 c2         1 0MZ      -0.163000
     27 C3           8.6180     9.6210    -7.3990 c2         1 0MZ      -0.018000
     28 C2           7.6470     8.8640    -6.7680 c2         1 0MZ      -0.217000
     29 C1           7.0420     9.3340    -5.6140 c2         1 0MZ       0.126000
     30 O1           6.0940     8.5880    -4.9910 oh         1 0MZ      -0.207000
     31 H26          1.9510     2.4190     1.0680 ha         1 0MZ       0.119000
     32 H24          1.9600     0.2810    -2.6270 ha         1 0MZ       0.118000
     33 H23          2.7810     2.2890    -3.7950 ha         1 0MZ       0.113000
     34 H22          3.1870     4.3700    -2.5360 ha         1 0MZ       0.144000
     35 H1           3.1610     4.6630     1.0030 hn         1 0MZ       0.085000
     36 H161         4.0270     7.1740     0.4260 hc         1 0MZ       0.088000
     37 H162         2.4050     7.2270     1.1310 hc         1 0MZ       0.088000
     38 H13          1.6030     8.3220    -1.0300 h1         1 0MZ       0.139000
     39 HO20         1.8550    10.8700     1.1280 ho         1 0MZ       0.228000
     40 H8           6.3270    11.1100    -4.8410 DU         1 0MZ       0.299000
     41 H5           8.6970    12.2960    -5.3380 ha         1 0MZ       0.122000
     42 H4           9.7540    11.4360    -7.3870 ha         1 0MZ       0.113000
     43 H3           9.0880     9.2500    -8.3010 ha         1 0MZ       0.102000
     44 H2           7.3600     7.9030    -7.1770 ha         1 0MZ       0.116000
     45 HO1          6.2920     7.6720    -5.0990 ho         1 0MZ       0.210000
@<TRIPOS>BOND
     1     1     2 1   
     2     2     3 1   
     3     2     4 1   
     4     2     5 1   
     5     5     6 1   
     6     5     7 1   
     7     6    10 1   
     8     6    31 1   
     9     7     8 1   
    10     7    32 1   
    11     8     9 1   
    12     8    33 1   
    13     9    10 1   
    14     9    34 1   
    15    10    11 1   
    16    11    12 1   
    17    11    35 1   
    18    12    13 1   
    19    12    14 1   
    20    14    15 1   
    21    14    36 1   
    22    14    37 1   
    23    15    16 1   
    24    15    20 1   
    25    15    38 1   
    26    16    17 1   
    27    16    18 1   
    28    17    39 1   
    29    18    19 1   
    30    19    20 1   
    31    19    21 1   
    32    21    22 1   
    33    22    23 1   
    34    23    24 1   
    35    23    40 1   
    36    24    25 1   
    37    24    29 1   
    38    24    40 1   
    39    25    26 1   
    40    25    41 1   
    41    26    27 1   
    42    26    42 1   
    43    27    28 1   
    44    27    43 1   
    45    28    29 1   
    46    28    44 1   
    47    29    30 1   
    48    30    45 1   
@<TRIPOS>SUBSTRUCTURE
     1 0MZ         1 TEMP              0 ****  ****    0 ROOT
