@<TRIPOS>MOLECULE
0N0
   80    84     1     0     0
SMALL
bcc


@<TRIPOS>ATOM
      1 C1           0.0000     0.0000     0.0000 c3         1 0N0       0.113800
      2 C2           1.5300     0.0000     0.0000 c3         1 0N0       0.203500
      3 C3           2.0370     0.0000     1.4440 c3         1 0N0      -0.026400
      4 C4           1.4730     1.2210     2.1750 c3         1 0N0      -0.116700
      5 C5          -0.0560     1.1860     2.1130 c3         1 0N0       0.146800
      6 N6          -0.4900     1.1880     0.7100 n7         1 0N0      -0.573200
      7 N7           2.0200    -1.1960    -0.6910 n7         1 0N0      -0.573100
      8 C8           1.9180     1.1970     3.6150 c          1 0N0       0.573100
      9 S9           2.4120    -1.1220    -2.2980 sy         1 0N0       1.041200
     10 C10          3.7920    -0.0370    -2.4480 ca         1 0N0      -0.168500
     11 O11          2.8780    -2.4160    -2.6570 o          1 0N0      -0.588800
     12 O12          1.3240    -0.4800    -2.9480 o          1 0N0      -0.588800
     13 C13          5.0780    -0.5380    -2.3670 ca         1 0N0       0.010000
     14 C14          6.1600     0.3130    -2.4850 ca         1 0N0      -0.136000
     15 C15          5.9580     1.6670    -2.6830 ca         1 0N0      -0.035300
     16 C16          4.6720     2.1680    -2.7640 ca         1 0N0      -0.136000
     17 C17          3.5890     1.3150    -2.6520 ca         1 0N0       0.010000
     18 C18          7.1380     2.5940    -2.8110 c3         1 0N0       0.056200
     19 O19          2.6180     0.2920     4.0170 o          1 0N0      -0.654100
     20 N20          1.5390     2.1800     4.4540 ns         1 0N0      -0.194900
     21 C21          1.9730     2.1570     5.8530 c3         1 0N0       0.034000
     22 C22          1.4090     3.3780     6.5830 c3         1 0N0       0.066600
     23 O23         -0.2260     5.6660     6.0880 os         1 0N0      -0.196200
     24 C24          1.9140     4.6290     5.9200 ca         1 0N0      -0.167800
     25 C25          1.0720     5.7080     5.7050 ca         1 0N0       0.145600
     26 C26          1.5620     6.8540     5.0890 ca         1 0N0      -0.128000
     27 C27          2.8810     6.9170     4.6920 ca         1 0N0      -0.064500
     28 C28          3.7210     5.8380     4.9080 ca         1 0N0      -0.129000
     29 C29          3.2370     4.6980     5.5210 ca         1 0N0      -0.071500
     30 C30         -0.8350     4.4750     6.3000 ca         1 0N0       0.145600
     31 C31         -0.0940     3.3290     6.5420 ca         1 0N0      -0.167800
     32 C32         -0.7410     2.1230     6.7520 ca         1 0N0      -0.071500
     33 C33         -2.1210     2.0580     6.7200 ca         1 0N0      -0.129000
     34 C34         -2.8610     3.2010     6.4780 ca         1 0N0      -0.064500
     35 C35         -2.2230     4.4050     6.2690 ca         1 0N0      -0.128000
     36 C36          1.8750     3.3540     8.0410 c3         1 0N0      -0.011400
     37 C37          1.3740     2.0770     8.7160 c3         1 0N0      -0.062400
     38 C38          1.8390     2.0540    10.1730 c3         1 0N0      -0.031400
     39 C39          1.3380     0.7760    10.8480 c3         1 0N0       0.210400
     40 O40          1.7730     0.7540    12.2100 os         1 0N0      -0.418600
     41 C41          1.3560    -0.4040    12.9350 c3         1 0N0       0.255700
     42 H1          -0.3600    -0.8910     0.4990 h1         1 0N0       0.025200
     43 H2          -0.3600     0.0180    -1.0220 h1         1 0N0       0.025200
     44 H3           1.8900     0.8880    -0.5070 h1         1 0N0       0.039700
     45 H4           1.7060    -0.9030     1.9420 hc         1 0N0       0.034700
     46 H5           3.1190     0.0460     1.4470 hc         1 0N0       0.034700
     47 H6           1.8310     2.1250     1.6960 hc         1 0N0       0.049700
     48 H7          -0.4570     2.0580     2.6150 h1         1 0N0       0.010200
     49 H8          -0.4150     0.2860     2.5990 h1         1 0N0       0.010200
     50 H9          -1.4900     1.2120     0.6700 hn         1 0N0       0.257800
     51 H11          2.1160    -2.0580    -0.1920 hn         1 0N0       0.351800
     52 H12          5.2380    -1.5980    -2.2120 ha         1 0N0       0.123000
     53 H13          7.1680    -0.0800    -2.4220 ha         1 0N0       0.112000
     54 H14          4.5120     3.2270    -2.9220 ha         1 0N0       0.112000
     55 H15          2.5820     1.7080    -2.7150 ha         1 0N0       0.123000
     56 H16          6.7940     3.6210    -2.7920 hc         1 0N0       0.011700
     57 H17          7.6480     2.4020    -3.7470 hc         1 0N0       0.011700
     58 H18          7.8200     2.4260    -1.9870 hc         1 0N0       0.011700
     59 H19          0.9620     2.9270     4.1220 hn         1 0N0       0.187500
     60 H20          1.6110     1.2530     6.3280 h1         1 0N0       0.040200
     61 H21          3.0550     2.1780     5.8960 h1         1 0N0       0.040200
     62 H22          0.9050     7.6990     4.9190 ha         1 0N0       0.119000
     63 H23          3.2610     7.8110     4.2120 ha         1 0N0       0.106000
     64 H24          4.7570     5.8880     4.5960 ha         1 0N0       0.109000
     65 H25          3.8970     3.8550     5.6890 ha         1 0N0       0.120500
     66 H26         -0.1630     1.2270     6.9410 ha         1 0N0       0.120500
     67 H27         -2.6220     1.1120     6.8840 ha         1 0N0       0.109000
     68 H28         -3.9430     3.1500     6.4530 ha         1 0N0       0.106000
     69 H29         -2.8040     5.2990     6.0800 ha         1 0N0       0.119000
     70 H30          1.4770     4.2170     8.5610 hc         1 0N0       0.027700
     71 H31          2.9570     3.3790     8.0740 hc         1 0N0       0.027700
     72 H32          1.7720     1.2130     8.1960 hc         1 0N0       0.030700
     73 H33          0.2910     2.0510     8.6820 hc         1 0N0       0.030700
     74 H34          1.4410     2.9170    10.6930 hc         1 0N0       0.024200
     75 H35          2.9210     2.0800    10.2070 hc         1 0N0       0.024200
     76 H36          1.7360    -0.0870    10.3280 h1         1 0N0      -0.010800
     77 H37          0.2550     0.7500    10.8150 h1         1 0N0      -0.010800
     78 H38          1.7300    -0.3480    13.9500 h1         1 0N0      -0.013967
     79 H39          0.2740    -0.4500    12.9510 h1         1 0N0      -0.013967
     80 H40          1.7490    -1.2920    12.4540 h1         1 0N0      -0.013967
@<TRIPOS>BOND
     1     1     2 1   
     2     1     6 1   
     3     1    42 1   
     4     1    43 1   
     5     2     3 1   
     6     2     7 1   
     7     2    44 1   
     8     3     4 1   
     9     3    45 1   
    10     3    46 1   
    11     4     5 1   
    12     4     8 1   
    13     4    47 1   
    14     5     6 1   
    15     5    48 1   
    16     5    49 1   
    17     6    50 1   
    18     7     9 1   
    19     7    51 1   
    20     8    19 2   
    21     8    20 1   
    22     9    10 1   
    23     9    11 2   
    24     9    12 2   
    25    10    13 ar  
    26    10    17 ar  
    27    13    14 ar  
    28    13    52 1   
    29    14    15 ar  
    30    14    53 1   
    31    15    16 ar  
    32    15    18 1   
    33    16    17 ar  
    34    16    54 1   
    35    17    55 1   
    36    18    56 1   
    37    18    57 1   
    38    18    58 1   
    39    20    21 1   
    40    20    59 1   
    41    21    22 1   
    42    21    60 1   
    43    21    61 1   
    44    22    24 1   
    45    22    31 1   
    46    22    36 1   
    47    23    25 1   
    48    23    30 1   
    49    24    25 ar  
    50    24    29 ar  
    51    25    26 ar  
    52    26    27 ar  
    53    26    62 1   
    54    27    28 ar  
    55    27    63 1   
    56    28    29 ar  
    57    28    64 1   
    58    29    65 1   
    59    30    31 ar  
    60    30    35 ar  
    61    31    32 ar  
    62    32    33 ar  
    63    32    66 1   
    64    33    34 ar  
    65    33    67 1   
    66    34    35 ar  
    67    34    68 1   
    68    35    69 1   
    69    36    37 1   
    70    36    70 1   
    71    36    71 1   
    72    37    38 1   
    73    37    72 1   
    74    37    73 1   
    75    38    39 1   
    76    38    74 1   
    77    38    75 1   
    78    39    40 1   
    79    39    76 1   
    80    39    77 1   
    81    40    41 1   
    82    41    78 1   
    83    41    79 1   
    84    41    80 1   
@<TRIPOS>SUBSTRUCTURE
     1 0N0         1 TEMP              0 ****  ****    0 ROOT
