@<TRIPOS>MOLECULE
molecule
   82    86     1     0     0
SMALL
bcc


@<TRIPOS>ATOM
      1 C1           0.0000     0.0000     0.0000 c3         1 0N0       0.149800
      2 C2           1.5440     0.0000     0.0000 c3         1 0N0       0.134500
      3 C3           2.1130     0.0000     1.4500 c3         1 0N0      -0.104400
      4 C4           1.5340     1.1400     2.3570 c3         1 0N0      -0.132700
      5 C5          -0.0090     1.1890     2.1930 c3         1 0N0       0.166800
      6 N6          -0.4470     1.1680     0.7740 n7         1 0N0      -0.823200
      7 N7           2.0860    -1.1170    -0.7620 ny         1 0N0      -0.658900
      8 C8           1.8390     0.9820     3.8430 c          1 0N0       0.538100
      9 S9           3.3400    -0.9350    -1.8020 sy         1 0N0       1.556200
     10 C10          4.5910    -1.8830    -0.9730 ca         1 0N0      -0.627500
     11 O11          2.9240    -1.5890    -3.0310 o          1 0N0      -0.552800
     12 O12          3.7940     0.4520    -1.8560 o          1 0N0      -0.552800
     13 C13          4.3340    -3.2440    -0.6810 ca         1 0N0       0.035000
     14 C14          5.3160    -4.0260    -0.0370 ca         1 0N0      -0.164000
     15 C15          6.5520    -3.4560     0.3200 ca         1 0N0       0.116700
     16 C16          6.8180    -2.0980     0.0120 ca         1 0N0      -0.164000
     17 C17          5.8350    -1.3050    -0.6160 ca         1 0N0       0.035000
     18 C18          7.6060    -4.3260     1.0230 c3         1 0N0      -0.108800
     19 O19          2.0930    -0.1270     4.2740 o          1 0N0      -0.401100
     20 N20          1.7950     2.0840     4.6530 ny         1 0N0      -0.674800
     21 C21          2.0080     2.0730     6.1130 c3         1 0N0       0.101800
     22 C22          0.6920     2.1140     6.9810 c3         1 0N0       0.079600
     23 O23          0.9030    -0.5440     8.0070 os         1 0N0      -0.225200
     24 C24         -0.2410     0.9610     6.4760 ca         1 0N0      -0.183300
     25 C25         -0.0290    -0.3390     6.9890 ca         1 0N0       0.124600
     26 C26         -0.7740    -1.4370     6.5220 ca         1 0N0      -0.125000
     27 C27         -1.7180    -1.2620     5.4920 ca         1 0N0      -0.077500
     28 C28         -1.9560     0.0090     4.9500 ca         1 0N0      -0.139000
     29 C29         -1.2210     1.0970     5.4460 ca         1 0N0      -0.123500
     30 C30          1.2200     0.4890     8.8890 ca         1 0N0       0.124600
     31 C31          1.1510     1.8290     8.4520 ca         1 0N0      -0.183300
     32 C32          1.5020     2.8290     9.4130 ca         1 0N0      -0.123500
     33 C33          1.9050     2.5030    10.7380 ca         1 0N0      -0.139000
     34 C34          1.9290     1.1610    11.1530 ca         1 0N0      -0.077500
     35 C35          1.5790     0.1640    10.2160 ca         1 0N0      -0.125000
     36 C36          0.0340     3.5340     6.8440 c3         1 0N0      -0.085400
     37 C37         -1.3590     3.8090     7.4850 c3         1 0N0      -0.073400
     38 C38         -1.7170     5.3200     7.4540 c3         1 0N0      -0.111400
     39 C39         -2.2640     5.7700     6.0740 c3         1 0N0       0.120400
     40 O40         -2.8660     7.0750     6.2030 os         1 0N0      -0.467600
     41 C41         -2.3850     8.0150     5.2340 c3         1 0N0       0.114700
     42 H1          -0.3660     0.0730    -1.0170 h1         1 0N0       0.067200
     43 H2          -0.3660    -0.9080     0.4630 h1         1 0N0       0.067200
     44 H3           1.8700     0.9160    -0.4780 hx         1 0N0       0.102700
     45 H4           3.1890     0.1160     1.3970 hc         1 0N0       0.077200
     46 H5           1.8840    -0.9540     1.9090 hc         1 0N0       0.077200
     47 H6           1.9420     2.0840     2.0180 hc         1 0N0       0.112700
     48 H7          -0.4390     0.3340     2.7010 h1         1 0N0       0.053700
     49 H8          -0.3780     2.0970     2.6560 h1         1 0N0       0.053700
     50 H9          -1.4450     1.2350     0.7320 hn         1 0N0       0.417800
     51 H11          1.3270    -1.5000    -1.2900 hn         1 0N0       0.399800
     52 H12          3.4010    -3.6970    -0.9940 ha         1 0N0       0.170500
     53 H13          5.1190    -5.0680     0.1820 ha         1 0N0       0.184500
     54 H14          7.7810    -1.6690     0.2580 ha         1 0N0       0.184500
     55 H15          6.0720    -0.2950    -0.9270 ha         1 0N0       0.170500
     56 H16          8.1950    -4.8510     0.2800 hc         1 0N0       0.093367
     57 H17          8.2560    -3.6960     1.6190 hc         1 0N0       0.093367
     58 H18          7.1120    -5.0450     1.6650 hc         1 0N0       0.093367
     59 H19          2.4810     2.7140     4.2860 hn         1 0N0       0.473300
     60 H20          2.6150     2.9310     6.3750 hx         1 0N0       0.105700
     61 H21          2.5570     1.1750     6.3690 hx         1 0N0       0.105700
     62 H22         -0.6220    -2.4180     6.9560 ha         1 0N0       0.174500
     63 H23         -2.2750    -2.1160     5.1230 ha         1 0N0       0.163500
     64 H24         -2.6820     0.1470     4.1570 ha         1 0N0       0.156000
     65 H25         -1.4030     2.0800     5.0290 ha         1 0N0       0.142500
     66 H26          1.4890     3.8700     9.1120 ha         1 0N0       0.142500
     67 H27          2.1690     3.2900    11.4330 ha         1 0N0       0.156000
     68 H28          2.2340     0.8960    12.1580 ha         1 0N0       0.163500
     69 H29          1.5930    -0.8750    10.5210 ha         1 0N0       0.174500
     70 H30          0.7280     4.2510     7.2670 hc         1 0N0       0.044700
     71 H31         -0.0520     3.7470     5.7860 hc         1 0N0       0.044700
     72 H32         -1.3480     3.4700     8.5140 hc         1 0N0       0.064200
     73 H33         -2.1140     3.2550     6.9390 hc         1 0N0       0.064200
     74 H34         -2.4680     5.5180     8.2090 hc         1 0N0       0.061700
     75 H35         -0.8290     5.8960     7.6840 hc         1 0N0       0.061700
     76 H36         -3.0070     5.0610     5.7300 h1         1 0N0       0.060200
     77 H37         -1.4500     5.8160     5.3600 h1         1 0N0       0.060200
     78 H38         -2.9980     8.9070     5.2610 h1         1 0N0       0.038700
     79 H39         -2.4360     7.5730     4.2460 h1         1 0N0       0.038700
     80 H40         -1.3590     8.2740     5.4610 h1         1 0N0       0.038700
     81 H72          2.3430    -1.8200    -0.0970 hn         1 0N0       0.399800
     82 H202         0.8940     2.4930     4.5030 hn         1 0N0       0.473300
@<TRIPOS>BOND
     1    41    40 1   
     2    12     9 2   
     3    40    39 1   
     4    11     9 2   
     5     9     7 1   
     6     9    10 1   
     7     6     1 1   
     8     6     5 1   
     9    39    38 1   
    10     2     1 1   
    11     2     7 1   
    12     2     3 1   
    13    17    10 ar  
    14    17    16 ar  
    15     5     4 1   
    16    10    13 ar  
    17     4     3 1   
    18     4     8 1   
    19    38    37 1   
    20    16    15 ar  
    21    20     8 1   
    22    20    21 1   
    23     8    19 2   
    24    13    14 ar  
    25    36    37 1   
    26    36    22 1   
    27    21    22 1   
    28    15    14 ar  
    29    15    18 1   
    30    29    28 ar  
    31    29    24 ar  
    32    22    24 1   
    33    22    31 1   
    34    28    27 ar  
    35    24    25 ar  
    36    32    31 ar  
    37    32    33 ar  
    38    31    30 ar  
    39    27    26 ar  
    40    25    26 ar  
    41    25    23 1   
    42    33    34 ar  
    43    30    23 1   
    44    30    35 ar  
    45    34    35 ar  
    46     1    42 1   
    47     1    43 1   
    48     2    44 1   
    49     3    45 1   
    50     3    46 1   
    51     4    47 1   
    52     5    48 1   
    53     5    49 1   
    54     6    50 1   
    55     7    51 1   
    56    13    52 1   
    57    14    53 1   
    58    16    54 1   
    59    17    55 1   
    60    18    56 1   
    61    18    57 1   
    62    18    58 1   
    63    20    59 1   
    64    21    60 1   
    65    21    61 1   
    66    26    62 1   
    67    27    63 1   
    68    28    64 1   
    69    29    65 1   
    70    32    66 1   
    71    33    67 1   
    72    34    68 1   
    73    35    69 1   
    74    36    70 1   
    75    36    71 1   
    76    37    72 1   
    77    37    73 1   
    78    38    74 1   
    79    38    75 1   
    80    39    76 1   
    81    39    77 1   
    82    41    78 1   
    83    41    79 1   
    84    41    80 1   
    85    81     7 1   
    86    82    20 1   
@<TRIPOS>SUBSTRUCTURE
     1 0N0         1 TEMP              0 ****  ****    0 ROOT
