@<TRIPOS>MOLECULE
molecule
   60    62     1     0     0
SMALL
bcc


@<TRIPOS>ATOM
      1 O41          0.0000     0.0000     0.0000 o          1 0N2      -0.646500
      2 C41          1.2180     0.0000     0.0000 c          1 0N2       0.715700
      3 C51          1.9320     0.0000     1.2220 cc         1 0N2      -0.302400
      4 C5A          1.1950    -0.0010     2.5370 c3         1 0N2      -0.006900
      5 C61          3.2820    -0.0000     1.1940 cd         1 0N2       0.051600
      6 N31          1.8990    -0.0060    -1.1650 ns         1 0N2      -0.561500
      7 C21          3.2450    -0.0060    -1.1630 c          1 0N2       0.806500
      8 O21          3.8450    -0.0110    -2.2200 o          1 0N2      -0.615500
      9 N11          3.9350    -0.0000    -0.0080 n          1 0N2      -0.359000
     10 C1X          5.3990     0.0010    -0.0380 c3         1 0N2       0.311500
     11 O4X          5.8710     1.0770    -0.8650 os         1 0N2      -0.362600
     12 C2X          5.9120    -1.3130    -0.6620 c3         1 0N2      -0.154400
     13 C3X          6.7520    -0.8540    -1.8780 c3         1 0N2       0.113100
     14 O3X          7.9480    -1.6270    -1.9920 oh         1 0N2      -0.600800
     15 C4X          7.0770     0.6170    -1.5110 c3         1 0N2       0.137100
     16 C5X          7.3610     1.4370    -2.7710 c3         1 0N2       0.240400
     17 O5X          7.6690     2.7830    -2.4040 os         1 0N2      -0.607200
     18 P            8.0210     3.9260    -3.4820 p5         1 0N2       1.437800
     19 O1P          9.3970     3.5540    -4.2300 o          1 0N2      -0.831000
     20 O2P          6.9280     4.0200    -4.4760 o          1 0N2      -0.831000
     21 OPP          8.1850     5.3400    -2.7290 os         1 0N2      -0.713800
     22 P2           8.1250     6.8750    -3.2090 p5         1 0N2       1.402800
     23 O3P          6.5890     7.3350    -3.3470 o          1 0N2      -0.807500
     24 O4P          8.7990     7.0090    -4.5200 o          1 0N2      -0.807500
     25 O1           8.8680     7.8060    -2.1260 os         1 0N2      -0.551200
     26 C1           9.0760     9.2070    -2.3150 c3         1 0N2       0.441900
     27 C2          10.3540     9.6360    -1.5890 c3         1 0N2      -0.145400
     28 C3          10.5380    11.1490    -1.7450 c3         1 0N2       0.086500
     29 N3          11.7210    11.5810    -0.9900 nz         1 0N2      -0.809600
     30 C4           9.2950    11.8620    -1.2040 c3         1 0N2       0.084100
     31 O4           9.4250    13.2690    -1.4100 oh         1 0N2      -0.622800
     32 C5           8.0580    11.3460    -1.9440 c3         1 0N2       0.151100
     33 O5           7.9630     9.9290    -1.7840 os         1 0N2      -0.385600
     34 C6           8.1760    11.6850    -3.4330 c3         1 0N2      -0.127100
     35 H1           1.9090    -0.0110     3.3510 hc         1 0N2       0.040033
     36 H2           0.5800     0.8880     2.6060 hc         1 0N2       0.040033
     37 H3           0.5660    -0.8810     2.5970 hc         1 0N2       0.040033
     38 H4           3.8450     0.0020     2.1200 h4         1 0N2       0.157000
     39 H5           1.4010    -0.0100    -2.0330 hn         1 0N2       0.361500
     40 H6           5.7940     0.1090     0.9650 h2         1 0N2       0.059700
     41 H7           6.5330    -1.8500     0.0460 hc         1 0N2       0.056700
     42 H8           5.0800    -1.9260    -0.9870 hc         1 0N2       0.056700
     43 H9           6.1660    -0.9010    -2.7880 h1         1 0N2       0.078700
     44 H10          7.8320    -2.2890    -2.6530 ho         1 0N2       0.398000
     45 H11          7.9140     0.6600    -0.8240 h1         1 0N2       0.061700
     46 H12          6.4880     1.4280    -3.4120 h1         1 0N2       0.048200
     47 H13          8.2020     1.0050    -3.3000 h1         1 0N2       0.048200
     48 H16          9.1730     9.4240    -3.3720 h2         1 0N2       0.069700
     49 H17         10.2720     9.3900    -0.5370 hc         1 0N2       0.076700
     50 H18         11.2050     9.1230    -2.0220 hc         1 0N2       0.076700
     51 H19         10.6640    11.3900    -2.7940 hx         1 0N2       0.132700
     52 H20         12.5120    11.0330    -1.2660 hn         1 0N2       0.444133
     53 H21         11.5550    11.4570    -0.0100 hn         1 0N2       0.444133
     54 H23          9.1930    11.6540    -0.1460 h1         1 0N2       0.049700
     55 H24          9.0950    13.7290    -0.6550 ho         1 0N2       0.418000
     56 H25          7.1720    11.8140    -1.5320 h1         1 0N2       0.096700
     57 H26          9.1670    11.4260    -3.7840 hc         1 0N2       0.056700
     58 H27          7.4370    11.1230    -3.9900 hc         1 0N2       0.056700
     59 H28          8.0070    12.7450    -3.5760 hc         1 0N2       0.056700
     60 H33         11.9010    12.5480    -1.1760 hn         1 0N2       0.444133
@<TRIPOS>BOND
     1     1     2 2   
     2     2     6 1   
     3     2     3 1   
     4     4     3 1   
     5     6     7 1   
     6     3     5 2   
     7     7     8 2   
     8     7     9 1   
     9     5     9 1   
    10     9    10 1   
    11    20    18 1   
    12    11    10 1   
    13    11    15 1   
    14    10    12 1   
    15    16    15 1   
    16    16    17 1   
    17    18    19 1   
    18    18    17 1   
    19    18    21 1   
    20    15    13 1   
    21    12    13 1   
    22    23    22 1   
    23    21    22 1   
    24    13    14 1   
    25    22    24 1   
    26    22    25 1   
    27    32    34 1   
    28    32    33 1   
    29    32    30 1   
    30    25    26 1   
    31    33    26 1   
    32    31    30 1   
    33    30    28 1   
    34    26    27 1   
    35    28    27 1   
    36    28    29 1   
    37     4    35 1   
    38     4    36 1   
    39     4    37 1   
    40     5    38 1   
    41     6    39 1   
    42    10    40 1   
    43    12    41 1   
    44    12    42 1   
    45    13    43 1   
    46    14    44 1   
    47    15    45 1   
    48    16    46 1   
    49    16    47 1   
    50    26    48 1   
    51    27    49 1   
    52    27    50 1   
    53    28    51 1   
    54    29    52 1   
    55    29    53 1   
    56    30    54 1   
    57    31    55 1   
    58    32    56 1   
    59    34    57 1   
    60    34    58 1   
    61    34    59 1   
    62    60    29 1   
@<TRIPOS>SUBSTRUCTURE
     1 0N2         1 TEMP              0 ****  ****    0 ROOT
