@<TRIPOS>MOLECULE
0N2
   60    62     1     0     0
SMALL
bcc


@<TRIPOS>ATOM
      1 O41          1.2340     0.5660     2.8730 o          1 0N2      -0.641500
      2 C41          2.3140     0.5490     2.2550 c          1 0N2       0.717700
      3 C51          3.6040     0.0810     2.7800 cc         1 0N2      -0.268400
      4 C5A          3.6440    -0.4200     4.1690 c3         1 0N2      -0.036900
      5 C61          4.7100     0.1130     1.9830 cd         1 0N2       0.051600
      6 N31          2.3170     1.0150     0.9250 ns         1 0N2      -0.592500
      7 C21          3.4670     1.0380     0.1210 c          1 0N2       0.806500
      8 O21          3.3900     1.4680    -1.0550 o          1 0N2      -0.673500
      9 N11          4.6920     0.6110     0.6880 n          1 0N2      -0.380000
     10 C1X          5.8800     0.5270    -0.1670 c3         1 0N2       0.305500
     11 O4X          6.2700    -0.8380    -0.3570 os         1 0N2      -0.423600
     12 C2X          7.0990     1.2860     0.3940 c3         1 0N2      -0.124400
     13 C3X          8.1000     0.2060     0.8220 c3         1 0N2       0.135100
     14 O3X          9.3520     0.5030     0.2340 oh         1 0N2      -0.625800
     15 C4X          7.5470    -1.1140     0.2460 c3         1 0N2       0.092100
     16 C5X          7.3930    -2.2760     1.2320 c3         1 0N2       0.176400
     17 O5X          7.1130    -1.8350     2.5270 os         1 0N2      -0.599200
     18 P            7.6680    -2.7590     3.7670 p5         1 0N2       1.562800
     19 O1P          6.9870    -2.2920     4.9730 o          1 0N2      -0.818000
     20 O2P          7.9230    -4.1160     3.2790 o          1 0N2      -0.818000
     21 OPP          9.2440    -2.0920     3.7780 os         1 0N2      -0.809800
     22 P2          10.6430    -1.4290     3.7430 p5         1 0N2       1.806500
     23 O3P         10.9050    -0.4200     2.7220 o          1 0N2      -0.884300
     24 O4P         11.5900    -2.7110     3.7350 oh         1 0N2      -0.786400
     25 O1          10.9140    -0.8700     5.2310 os         1 0N2      -0.625200
     26 C1          11.3680     0.4390     5.4320 c3         1 0N2       0.382900
     27 C2          12.6600     0.4180     6.2590 c3         1 0N2      -0.109400
     28 C3          12.3730     0.6580     7.7490 c3         1 0N2       0.174500
     29 N3          13.5070     0.3200     8.5870 n8         1 0N2      -0.893800
     30 C4          11.0530    -0.0870     8.0830 c3         1 0N2       0.071100
     31 O4          10.8640    -0.0210     9.4900 oh         1 0N2      -0.614800
     32 C5           9.8790     0.5430     7.3140 c3         1 0N2       0.121100
     33 O5          10.3210     1.1300     6.0830 os         1 0N2      -0.427600
     34 C6           9.1930     1.6570     8.0820 c3         1 0N2      -0.092100
     35 H1           2.8380    -1.1800     4.3230 hc         1 0N2       0.056367
     36 H2           3.4650     0.4220     4.8840 hc         1 0N2       0.056367
     37 H3           4.6340    -0.8880     4.4050 hc         1 0N2       0.056367
     38 H4           5.7000    -0.2650     2.3270 h4         1 0N2       0.221000
     39 H5           1.4680     1.3250     0.5080 hn         1 0N2       0.338500
     40 H6           5.5810     0.9010    -1.1930 h2         1 0N2       0.110700
     41 H7           6.8410     1.9490     1.2520 hc         1 0N2       0.072700
     42 H8           7.5400     1.9170    -0.4180 hc         1 0N2       0.072700
     43 H9           8.1740     0.1560     1.9390 h1         1 0N2       0.081700
     44 H10         10.0390     0.3020     0.8900 ho         1 0N2       0.456000
     45 H11          8.1990    -1.4590    -0.6070 h1         1 0N2       0.071700
     46 H12          8.3410    -2.8830     1.2420 h1         1 0N2       0.045200
     47 H13          6.5450    -2.9250     0.8690 h1         1 0N2       0.045200
     48 H16         11.4960     0.9740     4.4420 h2         1 0N2       0.104700
     49 H17         13.1690    -0.5690     6.1080 hc         1 0N2       0.061700
     50 H18         13.3410     1.2230     5.8840 hc         1 0N2       0.061700
     51 H19         12.1750     1.7610     7.9020 h1         1 0N2       0.070700
     52 H20         11.1610    -3.5550     3.8590 ho         1 0N2       0.484000
     53 H21         13.7510    -0.6440     8.4680 hn         1 0N2       0.347800
     54 H23         11.1480    -1.1670     7.7750 h1         1 0N2       0.059700
     55 H24          9.9900    -0.3880     9.6660 ho         1 0N2       0.408000
     56 H25          9.1380    -0.2660     7.0510 h1         1 0N2       0.077700
     57 H26          9.9480     2.3510     8.5210 hc         1 0N2       0.043033
     58 H27          8.5260     2.2320     7.3960 hc         1 0N2       0.043033
     59 H28          8.5790     1.2190     8.9050 hc         1 0N2       0.043033
     60 H33         13.2580     0.4660     9.5480 hn         1 0N2       0.347800
@<TRIPOS>BOND
     1     1     2 2   
     2     2     3 1   
     3     2     6 1   
     4     3     4 1   
     5     3     5 2   
     6     4    35 1   
     7     4    36 1   
     8     4    37 1   
     9     5     9 1   
    10     5    38 1   
    11     6     7 1   
    12     6    39 1   
    13     7     8 2   
    14     7     9 1   
    15     9    10 1   
    16    10    11 1   
    17    10    12 1   
    18    10    40 1   
    19    11    15 1   
    20    12    13 1   
    21    12    41 1   
    22    12    42 1   
    23    13    14 1   
    24    13    15 1   
    25    13    43 1   
    26    14    44 1   
    27    15    16 1   
    28    15    45 1   
    29    16    17 1   
    30    16    46 1   
    31    16    47 1   
    32    17    18 1   
    33    18    19 1   
    34    18    20 1   
    35    18    21 1   
    36    21    22 1   
    37    22    23 2   
    38    22    24 1   
    39    22    25 1   
    40    24    52 1   
    41    25    26 1   
    42    26    27 1   
    43    26    33 1   
    44    26    48 1   
    45    27    28 1   
    46    27    49 1   
    47    27    50 1   
    48    28    29 1   
    49    28    30 1   
    50    28    51 1   
    51    29    53 1   
    52    29    60 1   
    53    30    31 1   
    54    30    32 1   
    55    30    54 1   
    56    31    55 1   
    57    32    33 1   
    58    32    34 1   
    59    32    56 1   
    60    34    57 1   
    61    34    58 1   
    62    34    59 1   
@<TRIPOS>SUBSTRUCTURE
     1 0N2         1 TEMP              0 ****  ****    0 ROOT
