@<TRIPOS>MOLECULE
molecule
   47    50     1     0     0
SMALL
bcc


@<TRIPOS>ATOM
      1 C1           0.0000     0.0000     0.0000 c3         1 0N5       0.125700
      2 O1           1.4300     0.0000     0.0000 os         1 0N5      -0.311900
      3 C2           2.0470     0.0000     1.2120 ca         1 0N5       0.118100
      4 C3           1.2950    -0.0060     2.3530 ca         1 0N5      -0.193000
      5 C4           1.9300    -0.0070     3.6000 ca         1 0N5      -0.292600
      6 C5           3.3450    -0.0010     3.6740 ca         1 0N5       0.460600
      7 C6           4.0950     0.0060     2.4920 ca         1 0N5      -0.194300
      8 C7           3.4470     0.0000     1.2770 ca         1 0N5       0.127100
      9 O2           4.1730     0.0000     0.1280 oh         1 0N5      -0.502100
     10 N1           3.9270    -0.0010     4.8830 nb         1 0N5      -0.764000
     11 C8           3.1980    -0.0070     5.9730 ca         1 0N5       0.715900
     12 N2           1.8740    -0.0130     5.9540 nb         1 0N5      -0.817000
     13 C9           1.1980    -0.0130     4.8130 ca         1 0N5       0.736200
     14 N3          -0.1820    -0.0190     4.8070 nu         1 0N5      -0.753300
     15 C10         -0.8860    -0.1360     6.0110 ca         1 0N5       0.132600
     16 C11         -2.1160     0.4920     6.1600 ca         1 0N5      -0.128000
     17 C12         -2.8100     0.3760     7.3470 ca         1 0N5      -0.125000
     18 C13         -2.2790    -0.3680     8.3930 ca         1 0N5       0.036600
     19 C14         -1.0490    -0.9960     8.2440 ca         1 0N5      -0.125000
     20 C15         -0.3580    -0.8850     7.0540 ca         1 0N5      -0.128000
     21 N4          -2.9830    -0.4850     9.5980 ns         1 0N5      -0.474100
     22 C16         -4.3290    -0.5560     9.5880 c          1 0N5       0.676700
     23 O3          -4.9370    -0.4320     8.5420 o          1 0N5      -0.600100
     24 C17         -5.0660    -0.7840    10.8480 ca         1 0N5      -0.150600
     25 C18         -4.3720    -0.9210    12.0520 ca         1 0N5      -0.084500
     26 C19         -5.0660    -1.1340    13.2250 ca         1 0N5      -0.137000
     27 C20         -6.4480    -1.2110    13.2100 ca         1 0N5      -0.103000
     28 C21         -7.1430    -1.0780    12.0200 ca         1 0N5      -0.137000
     29 C22         -6.4600    -0.8580    10.8410 ca         1 0N5      -0.084500
     30 H1          -0.3610     0.8710     0.5340 h1         1 0N5       0.043033
     31 H2          -0.3610    -0.8980     0.4870 h1         1 0N5       0.043033
     32 H3          -0.3610     0.0270    -1.0210 h1         1 0N5       0.043033
     33 H4           0.2200    -0.1240     2.2920 ha         1 0N5       0.135000
     34 H5           5.1770     0.0060     2.5330 ha         1 0N5       0.167000
     35 H6           4.5660     0.8480     0.0050 ho         1 0N5       0.424000
     36 H7           3.7010    -0.0080     6.9320 h5         1 0N5       0.057100
     37 H8          -0.6800     0.0900     3.9450 hn         1 0N5       0.457800
     38 H9          -2.5300     1.0730     5.3450 ha         1 0N5       0.147500
     39 H10         -3.7690     0.8670     7.4640 ha         1 0N5       0.150500
     40 H11         -0.6360    -1.5780     9.0590 ha         1 0N5       0.150500
     41 H12          0.6010    -1.3750     6.9370 ha         1 0N5       0.147500
     42 H13         -2.4880    -0.4960    10.4670 hn         1 0N5       0.325500
     43 H14         -3.2910    -0.8600    12.0650 ha         1 0N5       0.141000
     44 H15         -4.5290    -1.2400    14.1600 ha         1 0N5       0.136000
     45 H16         -6.9890    -1.3810    14.1330 ha         1 0N5       0.133000
     46 H17         -8.2240    -1.1370    12.0160 ha         1 0N5       0.136000
     47 H18         -7.0040    -0.7540     9.9100 ha         1 0N5       0.141000
@<TRIPOS>BOND
     1     1     2 1
     2     2     3 1
     3     9     8 1
     4     3     8 ar
     5     3     4 ar
     6     8     7 ar
     7     4     5 ar
     8     7     6 ar
     9     5     6 ar
    10     5    13 ar
    11    14    13 1
    12    14    15 1
    13     6    10 ar
    14    13    12 ar
    15    20    15 ar
    16    20    19 ar
    17    15    16 ar
    18    19    18 ar
    19    10    11 ar
    20    12    11 ar
    21    16    17 ar
    22    18    17 ar
    23    18    21 1
    24    21    22 1
    25    22    23 2
    26    22    24 1
    27    25    24 ar
    28    25    26 ar
    29    24    29 ar
    30    26    27 ar
    31    29    28 ar
    32    27    28 ar
    33     1    30 1
    34     1    31 1
    35     1    32 1
    36     4    33 1
    37     7    34 1
    38     9    35 1
    39    11    36 1
    40    14    37 1
    41    16    38 1
    42    17    39 1
    43    19    40 1
    44    20    41 1
    45    21    42 1
    46    25    43 1
    47    26    44 1
    48    27    45 1
    49    28    46 1
    50    29    47 1
@<TRIPOS>SUBSTRUCTURE
     1 0N5         1 TEMP              0 ****  ****    0 ROOT
