@<TRIPOS>MOLECULE
0N5
   47    50     1     0     0
SMALL
bcc


@<TRIPOS>ATOM
      1 C1           0.0000     0.0000     0.0000 c3         1 0N5       0.240700
      2 O1           1.4300     0.0000     0.0000 os         1 0N5      -0.289900
      3 C2           2.0470     0.0000     1.2120 ca         1 0N5       0.122100
      4 C3           1.2950    -0.0060     2.3530 ca         1 0N5      -0.185000
      5 C4           1.9300    -0.0070     3.6000 ca         1 0N5      -0.288600
      6 C5           3.3450    -0.0010     3.6740 ca         1 0N5       0.428600
      7 C6           4.0950     0.0060     2.4920 ca         1 0N5      -0.184300
      8 C7           3.4470     0.0000     1.2770 ca         1 0N5       0.138100
      9 O2           4.1730     0.0000     0.1280 oh         1 0N5      -0.485100
     10 N1           3.9270    -0.0010     4.8830 nb         1 0N5      -0.670000
     11 C8           3.1980    -0.0070     5.9730 ca         1 0N5       0.671900
     12 N2           1.8740    -0.0130     5.9540 nb         1 0N5      -0.720000
     13 C9           1.1980    -0.0130     4.8130 ca         1 0N5       0.536200
     14 N3          -0.1820    -0.0190     4.8070 nu         1 0N5      -0.279300
     15 C10         -0.8860    -0.1360     6.0110 ca         1 0N5      -0.023400
     16 C11         -2.1160     0.4920     6.1600 ca         1 0N5      -0.102000
     17 C12         -2.8100     0.3760     7.3470 ca         1 0N5      -0.096500
     18 C13         -2.2790    -0.3680     8.3930 ca         1 0N5      -0.106400
     19 C14         -1.0490    -0.9960     8.2440 ca         1 0N5      -0.096500
     20 C15         -0.3580    -0.8850     7.0540 ca         1 0N5      -0.102000
     21 N4          -2.9830    -0.4850     9.5980 ns         1 0N5      -0.033100
     22 C16         -4.3290    -0.5560     9.5880 c          1 0N5       0.587700
     23 O3          -4.9370    -0.4320     8.5420 o          1 0N5      -0.642100
     24 C17         -5.0660    -0.7840    10.8480 ca         1 0N5      -0.163600
     25 C18         -4.3720    -0.9210    12.0520 ca         1 0N5      -0.057500
     26 C19         -5.0660    -1.1340    13.2250 ca         1 0N5      -0.111000
     27 C20         -6.4480    -1.2110    13.2100 ca         1 0N5      -0.075000
     28 C21         -7.1430    -1.0780    12.0200 ca         1 0N5      -0.111000
     29 C22         -6.4600    -0.8580    10.8410 ca         1 0N5      -0.057500
     30 H1          -0.3610     0.8710     0.5340 h1         1 0N5      -0.001633
     31 H2          -0.3610    -0.8980     0.4870 h1         1 0N5      -0.001633
     32 H3          -0.3610     0.0270    -1.0210 h1         1 0N5      -0.001633
     33 H4           0.2200    -0.1240     2.2920 ha         1 0N5       0.124000
     34 H5           5.1770     0.0060     2.5330 ha         1 0N5       0.134000
     35 H6           4.5660     0.8480     0.0050 ho         1 0N5       0.406000
     36 H7           3.7010    -0.0080     6.9320 h5         1 0N5      -0.005900
     37 H8          -0.6800     0.0900     3.9450 hn         1 0N5       0.288800
     38 H9          -2.5300     1.0730     5.3450 ha         1 0N5       0.122000
     39 H10         -3.7690     0.8670     7.4640 ha         1 0N5       0.126000
     40 H11         -0.6360    -1.5780     9.0590 ha         1 0N5       0.126000
     41 H12          0.6010    -1.3750     6.9370 ha         1 0N5       0.122000
     42 H13         -2.4880    -0.4960    10.4670 hn         1 0N5       0.173500
     43 H14         -3.2910    -0.8600    12.0650 ha         1 0N5       0.113500
     44 H15         -4.5290    -1.2400    14.1600 ha         1 0N5       0.107000
     45 H16         -6.9890    -1.3810    14.1330 ha         1 0N5       0.103000
     46 H17         -8.2240    -1.1370    12.0160 ha         1 0N5       0.107000
     47 H18         -7.0040    -0.7540     9.9100 ha         1 0N5       0.113500
@<TRIPOS>BOND
     1     1     2 1   
     2     1    30 1   
     3     1    31 1   
     4     1    32 1   
     5     2     3 1   
     6     3     4 ar  
     7     3     8 ar  
     8     4     5 ar  
     9     4    33 1   
    10     5     6 ar  
    11     5    13 ar  
    12     6     7 ar  
    13     6    10 ar  
    14     7     8 ar  
    15     7    34 1   
    16     8     9 1   
    17     9    35 1   
    18    10    11 ar  
    19    11    12 ar  
    20    11    36 1   
    21    12    13 ar  
    22    13    14 1   
    23    14    15 1   
    24    14    37 1   
    25    15    16 ar  
    26    15    20 ar  
    27    16    17 ar  
    28    16    38 1   
    29    17    18 ar  
    30    17    39 1   
    31    18    19 ar  
    32    18    21 1   
    33    19    20 ar  
    34    19    40 1   
    35    20    41 1   
    36    21    22 1   
    37    21    42 1   
    38    22    23 2   
    39    22    24 1   
    40    24    25 ar  
    41    24    29 ar  
    42    25    26 ar  
    43    25    43 1   
    44    26    27 ar  
    45    26    44 1   
    46    27    28 ar  
    47    27    45 1   
    48    28    29 ar  
    49    28    46 1   
    50    29    47 1   
@<TRIPOS>SUBSTRUCTURE
     1 0N5         1 TEMP              0 ****  ****    0 ROOT
