@<TRIPOS>MOLECULE
0N5
   47    50     1     0     0
SMALL
bcc


@<TRIPOS>ATOM
      1 C1          -0.1950    -0.3590    -0.0200 c3         1 0N5       0.107700
      2 O1           1.2240    -0.2520    -0.0550 os         1 0N5      -0.299900
      3 C2           1.8510    -0.0930     1.1630 ca         1 0N5       0.103100
      4 C3           1.2180     0.0610     2.3770 ca         1 0N5      -0.159000
      5 C4           1.9690     0.2240     3.5660 ca         1 0N5      -0.283600
      6 C5           3.3970     0.2010     3.5110 ca         1 0N5       0.449600
      7 C6           4.0370     0.0480     2.2430 ca         1 0N5      -0.263300
      8 C7           3.2860    -0.0920     1.0970 ca         1 0N5       0.146100
      9 O2           3.8300    -0.2400    -0.1530 oh         1 0N5      -0.470100
     10 N1           4.1720     0.3180     4.6500 nb         1 0N5      -0.716000
     11 C8           3.5060     0.4550     5.7960 ca         1 0N5       0.666900
     12 N2           2.1480     0.5160     5.9920 nb         1 0N5      -0.761000
     13 C9           1.3710     0.4050     4.8900 ca         1 0N5       0.690200
     14 N3          -0.0270     0.4070     4.9980 nu         1 0N5      -0.715300
     15 C10         -0.6950     0.6670     6.2200 ca         1 0N5       0.097600
     16 C11         -0.4620    -0.1180     7.3660 ca         1 0N5      -0.110000
     17 C12         -1.1830     0.0930     8.5350 ca         1 0N5      -0.157500
     18 C13         -2.1720     1.0960     8.6020 ca         1 0N5       0.063600
     19 C14         -2.4070     1.8820     7.4480 ca         1 0N5      -0.157500
     20 C15         -1.6810     1.6750     6.2860 ca         1 0N5      -0.110000
     21 N4          -2.9400     1.3520     9.7490 ns         1 0N5      -0.468100
     22 C16         -2.8510     0.7250    10.9860 c          1 0N5       0.680700
     23 O3          -2.0390    -0.1830    11.2350 o          1 0N5      -0.580100
     24 C17         -3.7950     1.2250    12.0320 ca         1 0N5      -0.147600
     25 C18         -5.1410     1.4790    11.7510 ca         1 0N5      -0.091500
     26 C19         -5.9880     1.9220    12.7650 ca         1 0N5      -0.136500
     27 C20         -5.4960     2.1140    14.0560 ca         1 0N5      -0.107000
     28 C21         -4.1550     1.8530    14.3390 ca         1 0N5      -0.136500
     29 C22         -3.3030     1.4030    13.3310 ca         1 0N5      -0.091500
     30 H1          -0.5130    -1.2260     0.6070 h1         1 0N5       0.046700
     31 H2          -0.6520     0.5880     0.3570 h1         1 0N5       0.046700
     32 H3          -0.4650    -0.5260    -1.0940 h1         1 0N5       0.046700
     33 H4           0.1190     0.0340     2.4120 ha         1 0N5       0.140000
     34 H5           5.1380     0.0400     2.1960 ha         1 0N5       0.160000
     35 H6           4.7960    -0.2310    -0.0600 ho         1 0N5       0.423000
     36 H7           4.1110     0.5450     6.7250 h5         1 0N5       0.054100
     37 H8          -0.4910     0.7890     4.1990 hn         1 0N5       0.421800
     38 H9           0.3020    -0.9110     7.3520 ha         1 0N5       0.142500
     39 H10         -0.9650    -0.5410     9.4110 ha         1 0N5       0.153500
     40 H11         -3.1690     2.6770     7.4590 ha         1 0N5       0.153500
     41 H12         -1.8890     2.3110     5.4120 ha         1 0N5       0.142500
     42 H13         -3.5940     2.0990     9.6690 hn         1 0N5       0.318500
     43 H14         -5.5440     1.3130    10.7400 ha         1 0N5       0.145500
     44 H15         -7.0480     2.1170    12.5450 ha         1 0N5       0.138500
     45 H16         -6.1680     2.4660    14.8540 ha         1 0N5       0.137000
     46 H17         -3.7680     1.9950    15.3580 ha         1 0N5       0.138500
     47 H18         -2.2470     1.1750    13.5470 ha         1 0N5       0.145500
@<TRIPOS>BOND
     1     1     2 1   
     2     1    30 1   
     3     1    31 1   
     4     1    32 1   
     5     2     3 1   
     6     3     4 ar  
     7     3     8 ar  
     8     4     5 ar  
     9     4    33 1   
    10     5     6 ar  
    11     5    13 ar  
    12     6     7 ar  
    13     6    10 ar  
    14     7     8 ar  
    15     7    34 1   
    16     8     9 1   
    17     9    35 1   
    18    10    11 ar  
    19    11    12 ar  
    20    11    36 1   
    21    12    13 ar  
    22    13    14 1   
    23    14    15 1   
    24    14    37 1   
    25    15    16 ar  
    26    15    20 ar  
    27    16    17 ar  
    28    16    38 1   
    29    17    18 ar  
    30    17    39 1   
    31    18    19 ar  
    32    18    21 1   
    33    19    20 ar  
    34    19    40 1   
    35    20    41 1   
    36    21    22 1   
    37    21    42 1   
    38    22    23 2   
    39    22    24 1   
    40    24    25 ar  
    41    24    29 ar  
    42    25    26 ar  
    43    25    43 1   
    44    26    27 ar  
    45    26    44 1   
    46    27    28 ar  
    47    27    45 1   
    48    28    29 ar  
    49    28    46 1   
    50    29    47 1   
@<TRIPOS>SUBSTRUCTURE
     1 0N5         1 TEMP              0 ****  ****    0 ROOT
