@<TRIPOS>MOLECULE
molecule
   58    61     1     0     0
SMALL
bcc


@<TRIPOS>ATOM
      1 C9           0.0000     0.0000     0.0000 ca         1 0N6       0.020000
      2 C5           1.4010     0.0000     0.0000 ca         1 0N6      -0.100300
      3 C3           2.1550     0.0000     1.3480 c3         1 0N6      -0.082100
      4 C2           3.6070     0.4480     1.1190 c3         1 0N6       0.151800
      5 N1           4.2020    -0.3510     0.0250 n7         1 0N6      -0.792200
      6 C1           3.6250     0.0150    -1.2940 c3         1 0N6       0.175100
      7 C4           2.0950     0.0120    -1.2160 ca         1 0N6       0.019700
      8 C6           1.3890     0.0510    -2.4090 ca         1 0N6      -0.161000
      9 C7           0.0040    -0.0100    -2.4060 ca         1 0N6       0.024000
     10 C8          -0.7000     0.0380    -1.2060 ca         1 0N6      -0.525500
     11 S1          -2.4730     0.0590    -1.2550 sy         1 0N6       1.494200
     12 O1          -2.9470    -0.9060    -2.3060 o          1 0N6      -0.592300
     13 O3          -2.9970    -0.3350     0.1010 o          1 0N6      -0.592300
     14 N2          -3.0570     1.5940    -1.5960 ny         1 0N6      -0.673900
     15 C10         -3.0900     2.0600    -2.9970 c3         1 0N6      -0.024500
     16 C12         -4.5290     2.0040    -3.5410 c          1 0N6       0.652100
     17 O2          -5.4840     1.8960    -2.7660 o          1 0N6      -0.576100
     18 N3          -4.7490     2.0200    -4.8590 n          1 0N6      -0.443800
     19 C13         -6.0850     1.9570    -5.4810 c3         1 0N6       0.082000
     20 C14         -5.8430     1.9500    -7.0060 c3         1 0N6      -0.089900
     21 C15         -4.3300     1.7970    -7.1960 c3         1 0N6      -0.089900
     22 C16         -3.6830     2.1550    -5.8690 c3         1 0N6       0.082000
     23 C11         -2.6020     3.5230    -2.9860 c3         1 0N6       0.045900
     24 C17         -1.0720     3.5470    -2.8110 ca         1 0N6      -0.138300
     25 C22         -0.5280     3.4920    -1.5350 ca         1 0N6      -0.081000
     26 C18         -0.2240     3.5400    -3.9250 ca         1 0N6      -0.086000
     27 C19          1.1640     3.5000    -3.7630 ca         1 0N6      -0.131000
     28 C20          1.7020     3.5140    -2.4800 ca         1 0N6      -0.081000
     29 C21          0.8590     3.5090    -1.3710 ca         1 0N6      -0.062000
     30 C23          1.4090     3.5010    -0.0510 cg         1 0N6       0.332800
     31 N4           1.8520     3.5140     0.9970 n1         1 0N6      -0.505800
     32 H1          -0.3410     0.2300     1.0020 ha         1 0N6       0.168000
     33 H2           2.0720     0.9590     1.8450 hc         1 0N6       0.069700
     34 H3           1.8280    -0.8150     1.9820 hc         1 0N6       0.069700
     35 H4           4.0960     0.5230     2.0830 h1         1 0N6       0.071200
     36 H5           3.5920     1.4290     0.6600 h1         1 0N6       0.071200
     37 H6           4.0440    -1.3240     0.1980 hn         1 0N6       0.370800
     38 H8           3.8650    -0.7080    -2.0640 h1         1 0N6       0.087700
     39 H9           3.7800     1.0590    -1.5370 h1         1 0N6       0.087700
     40 H10          1.9210     0.1160    -3.3510 ha         1 0N6       0.165000
     41 H11         -0.5350    -0.1220    -3.3390 ha         1 0N6       0.184000
     42 H12         -4.0220     1.5250    -1.8500 hn         1 0N6       0.469300
     43 H13         -2.4340     1.4520    -3.6090 hx         1 0N6       0.143700
     44 H14         -6.7150     1.2290    -4.9850 h1         1 0N6       0.060950
     45 H15         -6.5480     2.9360    -5.5160 h1         1 0N6       0.060950
     46 H16         -6.0970     0.9770    -7.4080 hc         1 0N6       0.072200
     47 H17         -6.4550     2.7130    -7.4730 hc         1 0N6       0.072200
     48 H18         -4.1320     1.0430    -7.9480 hc         1 0N6       0.072200
     49 H19         -3.9040     2.7450    -7.5030 hc         1 0N6       0.072200
     50 H20         -2.9050     1.4250    -5.6800 h1         1 0N6       0.060950
     51 H21         -3.2700     3.1560    -5.8330 h1         1 0N6       0.060950
     52 H22         -1.5230     3.6160    -2.9390 hc         1 0N6       0.097700
     53 H23         -3.0780     4.1410    -3.7380 hc         1 0N6       0.097700
     54 H24         -1.0820     2.7780    -0.9360 ha         1 0N6       0.147000
     55 H25         -0.3010     2.6750    -4.5720 ha         1 0N6       0.151000
     56 H26          1.3240     2.7010    -4.4760 ha         1 0N6       0.152000
     57 H27          2.1040     4.4330    -2.0710 ha         1 0N6       0.146000
     58 H231        -3.8170     1.5160    -2.2410 hn         1 0N6       0.469300
@<TRIPOS>BOND
     1    31    30 3   
     2     3     4 1   
     3     3     2 1   
     4     4     5 1   
     5    30    29 1   
     6    13    11 2   
     7     1     2 ar  
     8     1    10 ar  
     9     2     7 ar  
    10     5     6 1   
    11    29    25 ar  
    12    29    28 ar  
    13    25    24 ar  
    14    14    11 1   
    15    14    15 1   
    16    11    10 1   
    17    11    12 2   
    18    10     9 ar  
    19     7     6 1   
    20     7     8 ar  
    21    28    27 ar  
    22    24    23 1   
    23    24    26 ar  
    24    23    15 1   
    25    17    16 2   
    26    15    16 1   
    27     9     8 ar  
    28    16    18 1   
    29    27    26 ar  
    30    18    19 1   
    31    18    22 1   
    32    19    20 1   
    33    22    21 1   
    34    20    21 1   
    35     1    32 1   
    36     3    33 1   
    37     3    34 1   
    38     4    35 1   
    39     4    36 1   
    40     5    37 1   
    41     6    38 1   
    42     6    39 1   
    43     8    40 1   
    44     9    41 1   
    45    14    42 1   
    46    15    43 1   
    47    19    44 1   
    48    19    45 1   
    49    20    46 1   
    50    20    47 1   
    51    21    48 1   
    52    21    49 1   
    53    22    50 1   
    54    22    51 1   
    55    23    52 1   
    56    23    53 1   
    57    25    54 1   
    58    26    55 1   
    59    27    56 1   
    60    28    57 1   
    61    58    14 1   
@<TRIPOS>SUBSTRUCTURE
     1 0N6         1 TEMP              0 ****  ****    0 ROOT
