@<TRIPOS>MOLECULE
molecule
   57    60     1     0     0
SMALL
bcc


@<TRIPOS>ATOM
      1 C9           0.0000     0.0000     0.0000 ca         1 0N6      -0.033000
      2 C5           1.3860     0.0000     0.0000 ca         1 0N6      -0.101300
      3 C3           2.1050     0.0000     1.3260 c3         1 0N6      -0.085100
      4 C2           3.5640    -0.4130     1.1290 c3         1 0N6       0.171800
      5 N1           4.1380     0.4030     0.0470 n7         1 0N6      -0.852200
      6 C1           3.5780    -0.0010    -1.2470 c3         1 0N6       0.196100
      7 C4           2.0730     0.0060    -1.1950 ca         1 0N6      -0.036300
      8 C6           1.3710     0.0170    -2.3910 ca         1 0N6      -0.152000
      9 C7          -0.0090     0.0190    -2.3900 ca         1 0N6      -0.039000
     10 C8          -0.6970     0.0090    -1.1920 ca         1 0N6      -0.296500
     11 S1          -2.4590     0.0090    -1.1840 sy         1 0N6       1.437200
     12 O1          -2.8650    -0.5250    -2.4360 o          1 0N6      -0.622300
     13 O3          -2.8550    -0.5450     0.0630 o          1 0N6      -0.622300
     14 N2          -2.9490     1.5910    -1.1700 n7         1 0N6      -0.884100
     15 C10         -2.6590     2.4590    -2.3140 c3         1 0N6       0.204500
     16 C12         -3.8440     2.4760    -3.2450 c          1 0N6       0.643100
     17 O2          -4.8330     1.8270    -2.9790 o          1 0N6      -0.574100
     18 N3          -3.8040     3.2120    -4.3740 n          1 0N6      -0.494800
     19 C13         -4.8830     3.3180    -5.3660 c3         1 0N6       0.107000
     20 C14         -4.3790     4.2440    -6.4930 c3         1 0N6      -0.111900
     21 C15         -2.8370     4.1560    -6.3530 c3         1 0N6      -0.111900
     22 C16         -2.6720     4.0480    -4.8140 c3         1 0N6       0.107000
     23 C11         -2.3800     3.8790    -1.8190 c3         1 0N6      -0.087100
     24 C17         -1.1230     3.8830    -0.9870 ca         1 0N6      -0.061300
     25 C22         -1.1980     3.6650     0.3730 ca         1 0N6      -0.098000
     26 C18          0.1030     4.1000    -1.5900 ca         1 0N6      -0.139000
     27 C19          1.2620     4.1040    -0.8330 ca         1 0N6      -0.154000
     28 C20          1.2010     3.8920     0.5290 ca         1 0N6      -0.073000
     29 C21         -0.0330     3.6680     1.1430 ca         1 0N6      -0.027000
     30 C23         -0.1030     3.4430     2.5550 cg         1 0N6       0.229800
     31 N4          -0.1380     3.2630     3.6760 n1         1 0N6      -0.348800
     32 H1          -0.2000    -0.3170     1.0170 ha         1 0N6       0.166000
     33 H2           1.7890     0.8100     1.9730 hc         1 0N6       0.056200
     34 H3           1.7900    -0.8460     1.9250 hc         1 0N6       0.056200
     35 H4           3.6450    -1.4900     1.2070 h1         1 0N6       0.056700
     36 H5           4.2120    -0.2090     1.9730 h1         1 0N6       0.056700
     37 H6           4.1330     1.3730     0.2940 hn         1 0N6       0.377800
     38 H8           3.8470     0.6130    -2.0980 h1         1 0N6       0.066200
     39 H9           4.2400    -0.8340    -1.4560 h1         1 0N6       0.066200
     40 H10          1.7820    -0.0360    -3.3920 ha         1 0N6       0.138000
     41 H11         -0.5130     0.3530    -3.2890 ha         1 0N6       0.140000
     42 H12         -3.4730     2.0600    -0.4580 hn         1 0N6       0.466800
     43 H13         -1.7900     2.0830    -2.8410 h1         1 0N6       0.073700
     44 H14         -5.5620     3.9550    -4.8120 h1         1 0N6       0.046200
     45 H15         -5.6660     2.5910    -5.5410 h1         1 0N6       0.046200
     46 H16         -5.0240     5.0710    -6.7660 hc         1 0N6       0.065200
     47 H17         -4.6090     3.5020    -7.2480 hc         1 0N6       0.065200
     48 H18         -2.5990     5.1950    -6.1600 hc         1 0N6       0.065200
     49 H19         -2.5350     4.1830    -7.3930 hc         1 0N6       0.065200
     50 H20         -1.6320     3.8190    -4.6130 h1         1 0N6       0.046200
     51 H21         -2.7590     4.5710    -3.8690 h1         1 0N6       0.046200
     52 H22         -2.3150     4.6630    -2.5650 hc         1 0N6       0.066700
     53 H23         -3.1070     4.5400    -1.3630 hc         1 0N6       0.066700
     54 H24         -1.7760     3.7150     1.2880 ha         1 0N6       0.173000
     55 H25          0.1100     3.9550    -2.6630 ha         1 0N6       0.131000
     56 H26          1.9050     4.3370    -1.6730 ha         1 0N6       0.159000
     57 H27          2.2470     3.8850     0.8120 ha         1 0N6       0.149000
@<TRIPOS>BOND
     1    31    30 3   
     2     3     4 1   
     3     3     2 1   
     4     4     5 1   
     5    30    29 1   
     6    13    11 2   
     7     1     2 ar  
     8     1    10 ar  
     9     2     7 ar  
    10     5     6 1   
    11    29    25 ar  
    12    29    28 ar  
    13    25    24 ar  
    14    14    11 1   
    15    14    15 1   
    16    11    10 1   
    17    11    12 2   
    18    10     9 ar  
    19     7     6 1   
    20     7     8 ar  
    21    28    27 ar  
    22    24    23 1   
    23    24    26 ar  
    24    23    15 1   
    25    17    16 2   
    26    15    16 1   
    27     9     8 ar  
    28    16    18 1   
    29    27    26 ar  
    30    18    19 1   
    31    18    22 1   
    32    19    20 1   
    33    22    21 1   
    34    20    21 1   
    35     1    32 1   
    36     3    33 1   
    37     3    34 1   
    38     4    35 1   
    39     4    36 1   
    40     5    37 1   
    41     6    38 1   
    42     6    39 1   
    43     8    40 1   
    44     9    41 1   
    45    14    42 1   
    46    15    43 1   
    47    19    44 1   
    48    19    45 1   
    49    20    46 1   
    50    20    47 1   
    51    21    48 1   
    52    21    49 1   
    53    22    50 1   
    54    22    51 1   
    55    23    52 1   
    56    23    53 1   
    57    25    54 1   
    58    26    55 1   
    59    27    56 1   
    60    28    57 1   
@<TRIPOS>SUBSTRUCTURE
     1 0N6         1 TEMP              0 ****  ****    0 ROOT
