@<TRIPOS>MOLECULE
molecule
   20    21     1     0     0
SMALL
bcc


@<TRIPOS>ATOM
      1 O13          0.0000     0.0000     0.0000 o          1 0N7      -0.589500
      2 C10          1.2160     0.0000     0.0000 c          1 0N7       0.714100
      3 N9           1.8640     0.0000     1.1730 n          1 0N7      -0.355900
      4 O12          1.1000    -0.0010     2.3650 oh         1 0N7      -0.342100
      5 C8           3.2040     0.0000     1.2710 c          1 0N7       0.709500
      6 O11          3.7340    -0.0010     2.3620 o          1 0N7      -0.579500
      7 C7           4.0510     0.0000     0.0180 c3         1 0N7      -0.114100
      8 C2           3.3250     0.0010    -1.3080 ca         1 0N7      -0.056300
      9 C3           1.9270    -0.0050    -1.2910 ca         1 0N7      -0.151600
     10 C4           1.2270    -0.0040    -2.4980 ca         1 0N7      -0.052000
     11 C5           1.9210     0.0010    -3.6900 ca         1 0N7      -0.141000
     12 C6           3.3050     0.0070    -3.6960 ca         1 0N7      -0.090000
     13 C1           4.0070     0.0010    -2.5000 ca         1 0N7      -0.134000
     14 H1           0.8950     0.8870     2.6080 ho         1 0N7       0.410000
     15 H2           4.6660     0.8920     0.0470 hc         1 0N7       0.095700
     16 H3           4.6650    -0.8920     0.0460 hc         1 0N7       0.095700
     17 H4           0.1430    -0.0090    -2.4990 ha         1 0N7       0.161000
     18 H5           1.3790     0.0060    -4.6280 ha         1 0N7       0.142000
     19 H6           3.8420     0.0110    -4.6370 ha         1 0N7       0.139000
     20 H7           5.0910     0.0060    -2.5060 ha         1 0N7       0.140000
@<TRIPOS>BOND
     1    11    12 ar  
     2    11    10 ar  
     3    12    13 ar  
     4    10     9 ar  
     5    13     8 ar  
     6     9     8 ar  
     7     9     2 1   
     8     8     7 1   
     9     1     2 2   
    10     2     3 1   
    11     7     5 1   
    12     3     5 1   
    13     3     4 1   
    14     5     6 2   
    15     4    14 1   
    16     7    15 1   
    17     7    16 1   
    18    10    17 1   
    19    11    18 1   
    20    12    19 1   
    21    13    20 1   
@<TRIPOS>SUBSTRUCTURE
     1 0N7         1 TEMP              0 ****  ****    0 ROOT
