@<TRIPOS>MOLECULE
0N7
   20    21     1     0     0
SMALL
bcc


@<TRIPOS>ATOM
      1 O13          0.0000     0.0000     0.0000 o          1 0N7      -0.631500
      2 C10          1.2160     0.0000     0.0000 c          1 0N7       0.630100
      3 N9           1.8640     0.0000     1.1730 n          1 0N7       0.034100
      4 O12          1.1000    -0.0010     2.3650 oh         1 0N7      -0.419100
      5 C8           3.2040     0.0000     1.2710 c          1 0N7       0.614500
      6 O11          3.7340    -0.0010     2.3620 o          1 0N7      -0.622500
      7 C7           4.0510     0.0000     0.0180 c3         1 0N7      -0.048100
      8 C2           3.3250     0.0010    -1.3080 ca         1 0N7      -0.059300
      9 C3           1.9270    -0.0050    -1.2910 ca         1 0N7      -0.168600
     10 C4           1.2270    -0.0040    -2.4980 ca         1 0N7      -0.017000
     11 C5           1.9210     0.0010    -3.6900 ca         1 0N7      -0.119000
     12 C6           3.3050     0.0070    -3.6960 ca         1 0N7      -0.059000
     13 C1           4.0070     0.0010    -2.5000 ca         1 0N7      -0.108000
     14 H1           0.8950     0.8870     2.6080 ho         1 0N7       0.404000
     15 H2           4.6660     0.8920     0.0470 hc         1 0N7       0.055200
     16 H3           4.6650    -0.8920     0.0460 hc         1 0N7       0.055200
     17 H4           0.1430    -0.0090    -2.4990 ha         1 0N7       0.129000
     18 H5           1.3790     0.0060    -4.6280 ha         1 0N7       0.111000
     19 H6           3.8420     0.0110    -4.6370 ha         1 0N7       0.106000
     20 H7           5.0910     0.0060    -2.5060 ha         1 0N7       0.112000
@<TRIPOS>BOND
     1     1     2 2   
     2     2     3 1   
     3     2     9 1   
     4     3     4 1   
     5     3     5 1   
     6     4    14 1   
     7     5     6 2   
     8     5     7 1   
     9     7     8 1   
    10     7    15 1   
    11     7    16 1   
    12     8     9 ar  
    13     8    13 ar  
    14     9    10 ar  
    15    10    11 ar  
    16    10    17 1   
    17    11    12 ar  
    18    11    18 1   
    19    12    13 ar  
    20    12    19 1   
    21    13    20 1   
@<TRIPOS>SUBSTRUCTURE
     1 0N7         1 TEMP              0 ****  ****    0 ROOT
