@<TRIPOS>MOLECULE
0N7
   20    21     1     0     0
SMALL
bcc


@<TRIPOS>ATOM
      1 O13          0.0360     0.1150    -0.0300 o          1 0N7      -0.572500
      2 C10          1.2740     0.0960    -0.0440 c          1 0N7       0.715100
      3 N9           1.9870     0.1860     1.1870 n          1 0N7      -0.371900
      4 O12          1.2850    -0.1180     2.2730 oh         1 0N7      -0.372100
      5 C8           3.3870    -0.0260     1.2860 c          1 0N7       0.703500
      6 O11          3.9120    -0.2150     2.3900 o          1 0N7      -0.571500
      7 C7           4.2200     0.0890     0.0300 c3         1 0N7      -0.116100
      8 C2           3.4770     0.0310    -1.2500 ca         1 0N7      -0.041300
      9 C3           2.0770     0.0480    -1.2870 ca         1 0N7      -0.149600
     10 C4           1.4020     0.0060    -2.5140 ca         1 0N7      -0.063000
     11 C5           2.1250    -0.0540    -3.7030 ca         1 0N7      -0.140000
     12 C6           3.5200    -0.0750    -3.6700 ca         1 0N7      -0.091000
     13 C1           4.1940    -0.0330    -2.4510 ca         1 0N7      -0.140000
     14 H1           0.9970     0.7360     2.6570 ho         1 0N7       0.419000
     15 H2           4.9890    -0.7330     0.0670 hc         1 0N7       0.100200
     16 H3           4.7760     1.0680     0.0970 hc         1 0N7       0.100200
     17 H4           0.2990     0.0210    -2.5220 ha         1 0N7       0.164000
     18 H5           1.5950    -0.0870    -4.6670 ha         1 0N7       0.145000
     19 H6           4.0920    -0.1250    -4.6100 ha         1 0N7       0.141000
     20 H7           5.2940    -0.0500    -2.4280 ha         1 0N7       0.141000
@<TRIPOS>BOND
     1     1     2 2   
     2     2     3 1   
     3     2     9 1   
     4     3     4 1   
     5     3     5 1   
     6     4    14 1   
     7     5     6 2   
     8     5     7 1   
     9     7     8 1   
    10     7    15 1   
    11     7    16 1   
    12     8     9 ar  
    13     8    13 ar  
    14     9    10 ar  
    15    10    11 ar  
    16    10    17 1   
    17    11    12 ar  
    18    11    18 1   
    19    12    13 ar  
    20    12    19 1   
    21    13    20 1   
@<TRIPOS>SUBSTRUCTURE
     1 0N7         1 TEMP              0 ****  ****    0 ROOT
