@<TRIPOS>MOLECULE
0N8
   52    54     1     0     0
SMALL
bcc


@<TRIPOS>ATOM
      1 Cl2          0.0730     1.0740     0.1470 cl         1 0N8      -0.121400
      2 C19          1.7540     0.7840     0.1220 ca         1 0N8       0.008400
      3 C18          2.4730     0.7560     1.3200 ca         1 0N8      -0.125000
      4 C17          3.8470     0.5270     1.2910 ca         1 0N8      -0.121500
      5 C20          2.3990     0.5740    -1.0990 ca         1 0N8      -0.125000
      6 C21          3.7720     0.3420    -1.1150 ca         1 0N8      -0.121500
      7 C16          4.5120     0.3200     0.0760 ca         1 0N8      -0.065300
      8 C15          5.9890     0.1330     0.0180 c3         1 0N8      -0.032100
      9 C11          6.5610    -1.0310     0.8440 c3         1 0N8      -0.133000
     10 C10          5.7310    -2.2920     0.6540 c3         1 0N8      -0.091400
     11 C9           5.8160    -2.8290    -0.7740 c3         1 0N8       0.163800
     12 C14          6.6400    -0.5750     2.3160 c          1 0N8       0.590300
     13 O27          7.3720     0.4000     2.5660 o          1 0N8      -0.591100
     14 C22          5.8660    -1.2870     3.3040 ce         1 0N8      -0.401200
     15 C23          6.0350    -1.2300     4.6520 cf         1 0N8       0.117900
     16 O28          7.0220    -0.4820     5.2090 oh         1 0N8      -0.499100
     17 C24          5.1550    -2.0080     5.6460 c          1 0N8       0.881800
     18 O26          4.2190    -2.7180     5.2080 o          1 0N8      -0.801800
     19 O25          5.4750    -1.8490     6.8590 o          1 0N8      -0.801800
     20 C12          8.0070    -1.2930     0.3800 c3         1 0N8      -0.091400
     21 C13          8.1840    -2.6430    -0.3110 c3         1 0N8       0.163800
     22 N8           7.1710    -3.0180    -1.2840 n3         1 0N8      -0.729600
     23 C7           7.3630    -2.4160    -2.5970 c3         1 0N8       0.211100
     24 C2           8.6000    -2.8830    -3.3100 ca         1 0N8      -0.075300
     25 C3           8.8820    -4.2480    -3.4330 ca         1 0N8      -0.118000
     26 C4          10.0060    -4.6700    -4.1420 ca         1 0N8      -0.137500
     27 C5          10.8540    -3.7340    -4.7340 ca         1 0N8      -0.138000
     28 C6          10.5770    -2.3730    -4.6130 ca         1 0N8      -0.137500
     29 C1           9.4560    -1.9480    -3.9010 ca         1 0N8      -0.118000
     30 H1           1.9630     0.9050     2.2840 ha         1 0N8       0.143000
     31 H2           4.4150     0.4920     2.2390 ha         1 0N8       0.150000
     32 H3           1.8310     0.5900    -2.0390 ha         1 0N8       0.143000
     33 H4           4.2780     0.1720    -2.0770 ha         1 0N8       0.150000
     34 H5           6.2910    -0.0180    -1.0550 hc         1 0N8       0.053700
     35 H6           6.4810     1.0810     0.3760 hc         1 0N8       0.053700
     36 H7           4.6520    -2.0770     0.8790 hc         1 0N8       0.059950
     37 H8           6.0800    -3.0780     1.3750 hc         1 0N8       0.059950
     38 H9           5.3240    -3.8420    -0.8070 h1         1 0N8       0.043700
     39 H10          5.2170    -2.1400    -1.4400 h1         1 0N8       0.043700
     40 H11          5.0460    -1.9430     2.9670 ha         1 0N8       0.161000
     41 H14          6.9600    -0.6020     6.1810 ho         1 0N8       0.449000
     42 H16          8.6980    -1.2670     1.2640 hc         1 0N8       0.059950
     43 H17          8.3380    -0.4730    -0.3080 hc         1 0N8       0.059950
     44 H18          9.1910    -2.6620    -0.8160 h1         1 0N8       0.043700
     45 H19          8.1780    -3.4540     0.4730 h1         1 0N8       0.043700
     46 H21          7.3790    -1.2860    -2.5410 h1         1 0N8       0.034700
     47 H22          6.4790    -2.7080    -3.2380 h1         1 0N8       0.034700
     48 H23          8.2160    -4.9860    -2.9600 ha         1 0N8       0.139500
     49 H24         10.2250    -5.7440    -4.2320 ha         1 0N8       0.124500
     50 H25         11.7390    -4.0690    -5.2930 ha         1 0N8       0.122000
     51 H26         11.2450    -1.6320    -5.0740 ha         1 0N8       0.124500
     52 H27          9.2470    -0.8720    -3.8030 ha         1 0N8       0.139500
@<TRIPOS>BOND
     1     1     2 1   
     2     2     3 ar  
     3     2     5 ar  
     4     3     4 ar  
     5     3    30 1   
     6     4     7 ar  
     7     4    31 1   
     8     5     6 ar  
     9     5    32 1   
    10     6     7 ar  
    11     6    33 1   
    12     7     8 1   
    13     8     9 1   
    14     8    34 1   
    15     8    35 1   
    16     9    10 1   
    17     9    12 1   
    18     9    20 1   
    19    10    11 1   
    20    10    36 1   
    21    10    37 1   
    22    11    22 1   
    23    11    38 1   
    24    11    39 1   
    25    12    13 2   
    26    12    14 1   
    27    14    15 2   
    28    14    40 1   
    29    15    16 1   
    30    15    17 1   
    31    16    41 1   
    32    17    18 1   
    33    17    19 1   
    34    20    21 1   
    35    20    42 1   
    36    20    43 1   
    37    21    22 1   
    38    21    44 1   
    39    21    45 1   
    40    22    23 1   
    41    23    24 1   
    42    23    46 1   
    43    23    47 1   
    44    24    25 ar  
    45    24    29 ar  
    46    25    26 ar  
    47    25    48 1   
    48    26    27 ar  
    49    26    49 1   
    50    27    28 ar  
    51    27    50 1   
    52    28    29 ar  
    53    28    51 1   
    54    29    52 1   
@<TRIPOS>SUBSTRUCTURE
     1 0N8         1 TEMP              0 ****  ****    0 ROOT
