@<TRIPOS>MOLECULE
0N8
   52    54     1     0     0
SMALL
bcc


@<TRIPOS>ATOM
      1 Cl2          0.0000     0.0000     0.0000 cl         1 0N8      -0.062400
      2 C19          1.7360     0.0000     0.0000 ca         1 0N8      -0.034600
      3 C18          2.4280     0.0000     1.1990 ca         1 0N8      -0.100500
      4 C17          3.8090     0.0000     1.1980 ca         1 0N8      -0.083500
      5 C20          2.4280    -0.0050    -1.1980 ca         1 0N8      -0.100500
      6 C21          3.8100    -0.0060    -1.1970 ca         1 0N8      -0.083500
      7 C16          4.5020    -0.0000     0.0010 ca         1 0N8      -0.077300
      8 C15          6.0080     0.0000     0.0020 c3         1 0N8       0.042900
      9 C11          6.5180     1.4420     0.0010 c3         1 0N8      -0.154000
     10 C10          5.9740     2.1780     1.2280 c3         1 0N8      -0.015400
     11 C9           6.5360     3.6010     1.2550 c3         1 0N8       0.130800
     12 C14          6.0540     2.1400    -1.2520 c          1 0N8       0.631300
     13 O27          5.2620     3.0580    -1.1780 o          1 0N8      -0.598100
     14 C22          6.5410     1.7250    -2.5150 ce         1 0N8      -0.419200
     15 C23          6.0460     2.2820    -3.6470 cf         1 0N8       0.181900
     16 O28          5.0890     3.2330    -3.5720 oh         1 0N8      -0.463100
     17 C24          6.5560     1.8490    -4.9700 c          1 0N8       0.929800
     18 O26          6.0650     2.4010    -6.0960 o          1 0N8      -0.863800
     19 O25          7.4160     0.9940    -5.0390 o          1 0N8      -0.863800
     20 C12          8.0480     1.4440     0.0510 c3         1 0N8      -0.015400
     21 C13          8.5510     2.8880     0.1110 c3         1 0N8       0.130800
     22 N8           8.0030     3.5490     1.3030 n3         1 0N8      -0.543600
     23 C7           8.5720     4.8920     1.4690 c3         1 0N8       0.208100
     24 C2           8.1830     5.4400     2.8180 ca         1 0N8      -0.076300
     25 C3           8.9910     5.2140     3.9160 ca         1 0N8      -0.090000
     26 C4           8.6330     5.7170     5.1540 ca         1 0N8      -0.108000
     27 C5           7.4670     6.4450     5.2920 ca         1 0N8      -0.113000
     28 C6           6.6580     6.6710     4.1940 ca         1 0N8      -0.108000
     29 C1           7.0190     6.1740     2.9560 ca         1 0N8      -0.090000
     30 H1           1.8870     0.0000     2.1370 ha         1 0N8       0.110000
     31 H2           4.3510     0.0020     2.1360 ha         1 0N8       0.121000
     32 H3           1.8870    -0.0100    -2.1360 ha         1 0N8       0.110000
     33 H4           4.3520    -0.0080    -2.1350 ha         1 0N8       0.121000
     34 H5           6.3690    -0.5100     0.8870 hc         1 0N8       0.024200
     35 H6           6.3690    -0.5120    -0.8820 hc         1 0N8       0.024200
     36 H7           4.8930     2.2180     1.1740 hc         1 0N8       0.025700
     37 H8           6.2770     1.6530     2.1260 hc         1 0N8       0.025700
     38 H9           6.2240     4.1270     0.3610 h1         1 0N8       0.024200
     39 H10          6.1650     4.1170     2.1320 h1         1 0N8       0.024200
     40 H11          7.3080     0.9630    -2.5760 ha         1 0N8       0.149000
     41 H14          5.2040     3.8520    -4.2740 ho         1 0N8       0.418000
     42 H16          8.3800     0.9100     0.9330 hc         1 0N8       0.025700
     43 H17          8.4390     0.9630    -0.8370 hc         1 0N8       0.025700
     44 H18          8.2260     3.4190    -0.7760 h1         1 0N8       0.024200
     45 H19          9.6330     2.8900     0.1640 h1         1 0N8       0.024200
     46 H21          8.1920     5.5440     0.6910 h1         1 0N8       0.011200
     47 H22          9.6520     4.8380     1.3990 h1         1 0N8       0.011200
     48 H23          9.9050     4.6430     3.8070 ha         1 0N8       0.110500
     49 H24          9.2670     5.5390     6.0140 ha         1 0N8       0.097000
     50 H25          7.1850     6.8370     6.2620 ha         1 0N8       0.094000
     51 H26          5.7450     7.2440     4.3030 ha         1 0N8       0.097000
     52 H27          6.3860     6.3510     2.0950 ha         1 0N8       0.110500
@<TRIPOS>BOND
     1     1     2 1   
     2     2     3 ar  
     3     2     5 ar  
     4     3     4 ar  
     5     3    30 1   
     6     4     7 ar  
     7     4    31 1   
     8     5     6 ar  
     9     5    32 1   
    10     6     7 ar  
    11     6    33 1   
    12     7     8 1   
    13     8     9 1   
    14     8    34 1   
    15     8    35 1   
    16     9    10 1   
    17     9    12 1   
    18     9    20 1   
    19    10    11 1   
    20    10    36 1   
    21    10    37 1   
    22    11    22 1   
    23    11    38 1   
    24    11    39 1   
    25    12    13 2   
    26    12    14 1   
    27    14    15 2   
    28    14    40 1   
    29    15    16 1   
    30    15    17 1   
    31    16    41 1   
    32    17    18 1   
    33    17    19 1   
    34    20    21 1   
    35    20    42 1   
    36    20    43 1   
    37    21    22 1   
    38    21    44 1   
    39    21    45 1   
    40    22    23 1   
    41    23    24 1   
    42    23    46 1   
    43    23    47 1   
    44    24    25 ar  
    45    24    29 ar  
    46    25    26 ar  
    47    25    48 1   
    48    26    27 ar  
    49    26    49 1   
    50    27    28 ar  
    51    27    50 1   
    52    28    29 ar  
    53    28    51 1   
    54    29    52 1   
@<TRIPOS>SUBSTRUCTURE
     1 0N8         1 TEMP              0 ****  ****    0 ROOT
