@<TRIPOS>MOLECULE
0N9
   24    25     1     0     0
SMALL
bcc


@<TRIPOS>ATOM
      1 O16         -0.1190    -0.7060    -0.5450 o          1 0N9      -0.810300
      2 C14          1.1370    -0.6630    -0.3830 c          1 0N9       0.936800
      3 O15          1.7320    -0.9340     0.6850 o          1 0N9      -0.810300
      4 C3           1.9520    -0.2010    -1.6100 cc         1 0N9       0.001400
      5 C2           1.4130     0.6940    -2.5190 cd         1 0N9       0.004900
      6 O13          0.1590     1.2310    -2.4730 oh         1 0N9      -0.509100
      7 N4           3.2290    -0.7050    -1.7740 nc         1 0N9      -0.557300
      8 C5           3.9510    -0.2920    -2.8120 cd         1 0N9       0.377900
      9 N6           3.4990     0.6340    -3.7620 ns         1 0N9      -0.467400
     10 C1           2.2070     1.1710    -3.6700 c          1 0N9       0.679700
     11 O12          1.8430     1.9870    -4.5410 o          1 0N9      -0.665500
     12 C7           5.3100    -0.8360    -2.9690 cd         1 0N9       0.264000
     13 N11          6.1810    -0.5720    -4.0400 nd         1 0N9      -0.665000
     14 C10          7.3020    -1.2680    -3.7750 cc         1 0N9       0.373400
     15 N9           7.1990    -1.9770    -2.5620 na         1 0N9      -0.219900
     16 C17          8.1820    -2.8350    -1.9970 c3         1 0N9       0.029600
     17 C8           5.9310    -1.7080    -2.0470 cc         1 0N9      -0.179600
     18 H3          -0.3490     0.7560    -1.7800 ho         1 0N9       0.476000
     19 H4           8.1990    -1.2970    -4.3980 h5         1 0N9       0.051100
     20 H5           8.1960    -3.8230    -2.5350 h1         1 0N9       0.048367
     21 H6           9.1970    -2.3640    -2.0830 h1         1 0N9       0.048367
     22 H7           7.9500    -3.0160    -0.9140 h1         1 0N9       0.048367
     23 H8           5.5560    -2.1180    -1.1080 h4         1 0N9       0.211000
     24 H2           4.0820     0.9040    -4.5210 hn         1 0N9       0.332500
@<TRIPOS>BOND
     1     1     2 1   
     2     2     3 1   
     3     2     4 1   
     4     4     5 2   
     5     4     7 1   
     6     5     6 1   
     7     5    10 1   
     8     6    18 1   
     9     7     8 2   
    10     8     9 1   
    11     8    12 1   
    12     9    10 1   
    13     9    24 1   
    14    10    11 2   
    15    12    13 1   
    16    12    17 2   
    17    13    14 2   
    18    14    15 1   
    19    14    19 1   
    20    15    16 1   
    21    15    17 1   
    22    16    20 1   
    23    16    21 1   
    24    16    22 1   
    25    17    23 1   
@<TRIPOS>SUBSTRUCTURE
     1 0N9         1 TEMP              0 ****  ****    0 ROOT
