@<TRIPOS>MOLECULE
molecule
   24    25     1     0     0
SMALL
bcc


@<TRIPOS>ATOM
      1 O16          0.0000     0.0000     0.0000 o          1 0N9      -0.805800
      2 C14          1.3480     0.0000     0.0000 c          1 0N9       0.888800
      3 O15          1.9540     0.0000     1.0520 o          1 0N9      -0.805800
      4 C3           2.0870    -0.0020    -1.2810 cc         1 0N9       0.140400
      5 C2           3.4740    -0.0020    -1.2850 cd         1 0N9      -0.073100
      6 O13          4.1700    -0.0020    -0.1200 oh         1 0N9      -0.440100
      7 N4           1.4190    -0.0080    -2.4460 nc         1 0N9      -0.585300
      8 C5           2.0500    -0.0150    -3.5980 cd         1 0N9       0.412900
      9 N6           3.4140    -0.0170    -3.6680 ns         1 0N9      -0.436400
     10 C1           4.1490    -0.0050    -2.5360 c          1 0N9       0.648700
     11 O12          5.3680    -0.0050    -2.5850 o          1 0N9      -0.696500
     12 C7           1.2660    -0.0290    -4.8470 cd         1 0N9       0.272000
     13 N11          1.7670    -0.0430    -6.1080 nd         1 0N9      -0.698000
     14 C10          0.7800    -0.0520    -6.9570 cc         1 0N9       0.380400
     15 N9          -0.3930    -0.0440    -6.2730 na         1 0N9      -0.199900
     16 C17         -1.7360    -0.0510    -6.8580 c3         1 0N9       0.034600
     17 C8          -0.0950    -0.0340    -4.9450 cc         1 0N9      -0.189600
     18 H3           4.7020     0.7750    -0.0720 ho         1 0N9       0.399000
     19 H4           0.8790    -0.0640    -8.0360 h5         1 0N9       0.056100
     20 H5          -2.4550     0.2750    -6.1160 h1         1 0N9       0.050700
     21 H6          -1.7640     0.6210    -7.7070 h1         1 0N9       0.050700
     22 H7          -1.9840    -1.0550    -7.1830 h1         1 0N9       0.050700
     23 H8          -0.8020    -0.0260    -4.1240 h4         1 0N9       0.215000
     24 H2           3.8690    -0.0200    -4.5590 hn         1 0N9       0.332500
@<TRIPOS>BOND
     1    16    15 1
     2    14    15 1
     3    14    13 2
     4    15    17 1
     5    13    12 1
     6    17    12 2
     7    12     8 1
     8     8     9 1
     9     8     7 2
    10     9    10 1
    11     7     4 1
    12    10    11 2
    13    10     5 1
    14     4     5 2
    15     4     2 1
    16     5     6 1
    17     3     2 1
    18     2     1 1
    19     6    18 1
    20    14    19 1
    21    16    20 1
    22    16    21 1
    23    16    22 1
    24    17    23 1
    25     9    24 1
@<TRIPOS>SUBSTRUCTURE
     1 0N9         1 TEMP              0 ****  ****    0 ROOT
