@<TRIPOS>MOLECULE
0N9
   24    25     1     0     0
SMALL
bcc


@<TRIPOS>ATOM
      1 O16          0.0000     0.0000     0.0000 o          1 0N9      -0.861800
      2 C14          1.3480     0.0000     0.0000 c          1 0N9       0.971800
      3 O15          1.9540     0.0000     1.0520 o          1 0N9      -0.861800
      4 C3           2.0870    -0.0020    -1.2810 cc         1 0N9       0.070400
      5 C2           3.4740    -0.0020    -1.2850 cd         1 0N9      -0.045100
      6 O13          4.1700    -0.0020    -0.1200 oh         1 0N9      -0.413100
      7 N4           1.4190    -0.0080    -2.4460 nc         1 0N9      -0.448300
      8 C5           2.0500    -0.0150    -3.5980 cd         1 0N9       0.180900
      9 N6           3.4140    -0.0170    -3.6680 ns         1 0N9       0.043600
     10 C1           4.1490    -0.0050    -2.5360 c          1 0N9       0.541700
     11 O12          5.3680    -0.0050    -2.5850 o          1 0N9      -0.746500
     12 C7           1.2660    -0.0290    -4.8470 cd         1 0N9       0.257000
     13 N11          1.7670    -0.0430    -6.1080 nd         1 0N9      -0.624000
     14 C10          0.7800    -0.0520    -6.9570 cc         1 0N9       0.205400
     15 N9          -0.3930    -0.0440    -6.2730 na         1 0N9       0.269100
     16 C17         -1.7360    -0.0510    -6.8580 c3         1 0N9      -0.003400
     17 C8          -0.0950    -0.0340    -4.9450 cc         1 0N9      -0.354600
     18 H3           4.7020     0.7750    -0.0720 ho         1 0N9       0.381000
     19 H4           0.8790    -0.0640    -8.0360 h5         1 0N9       0.014100
     20 H5          -2.4550     0.2750    -6.1160 h1         1 0N9       0.018700
     21 H6          -1.7640     0.6210    -7.7070 h1         1 0N9       0.018700
     22 H7          -1.9840    -1.0550    -7.1830 h1         1 0N9       0.018700
     23 H8          -0.8020    -0.0260    -4.1240 h4         1 0N9       0.187000
     24 H2           3.8690    -0.0200    -4.5590 hn         1 0N9       0.178500
@<TRIPOS>BOND
     1     1     2 1   
     2     2     3 1   
     3     2     4 1   
     4     4     5 2   
     5     4     7 1   
     6     5     6 1   
     7     5    10 1   
     8     6    18 1   
     9     7     8 2   
    10     8     9 1   
    11     8    12 1   
    12     9    10 1   
    13     9    24 1   
    14    10    11 2   
    15    12    13 1   
    16    12    17 2   
    17    13    14 2   
    18    14    15 1   
    19    14    19 1   
    20    15    16 1   
    21    15    17 1   
    22    16    20 1   
    23    16    21 1   
    24    16    22 1   
    25    17    23 1   
@<TRIPOS>SUBSTRUCTURE
     1 0N9         1 TEMP              0 ****  ****    0 ROOT
