@<TRIPOS>MOLECULE
molecule
   69    73     1     0     0
SMALL
bcc


@<TRIPOS>ATOM
      1 C4           0.0000     0.0000     0.0000 ca         1 0NF      -0.272600
      2 C5           1.3880     0.0000     0.0000 ca         1 0NF       0.192100
      3 C6           2.0490     0.0000     1.2300 ca         1 0NF      -0.365300
      4 C8          -2.7660    -0.3660     0.1200 c          1 0NF       0.703500
      5 C10         -0.7610    -0.0010    -1.2980 c3         1 0NF      -0.022100
      6 C13          4.1330    -1.1500    -0.7760 ca         1 0NF      -0.142000
      7 C15          6.2120     0.0430    -0.9660 ca         1 0NF      -0.093300
      8 C17          4.1420     1.1780    -1.3480 ca         1 0NF      -0.143000
      9 C20          7.7040     2.2710    -1.8590 c3         1 0NF      -0.104700
     10 C21          6.2260     2.5050    -1.5510 c3         1 0NF      -0.126100
     11 C22          8.4270     3.5920    -1.9030 c          1 0NF       0.667100
     12 C26         10.1590     5.7190    -2.6900 ca         1 0NF      -0.057000
     13 C28         10.2280     8.0760    -3.1070 ca         1 0NF      -0.127000
     14 N33          8.8760    10.4980    -3.0380 nz         1 0NF      -0.807600
     15 C38          6.7250     9.3300    -3.1220 c3         1 0NF      -0.110600
     16 C39          8.1340     9.5550    -5.1730 c3         1 0NF      -0.110600
     17 C29          8.8610     8.0840    -3.3140 ca         1 0NF      -0.138300
     18 C30          8.1380     6.9120    -3.2110 ca         1 0NF      -0.121000
     19 C27         10.8760     6.8940    -2.7950 ca         1 0NF      -0.133300
     20 C34         12.3660     6.8900    -2.5690 c3         1 0NF       0.678200
     21 F37         12.7880     5.5900    -2.2690 f          1 0NF      -0.209633
     22 F35         13.0140     7.3350    -3.7250 f          1 0NF      -0.209633
     23 F36         12.6780     7.7390    -1.5010 f          1 0NF      -0.209633
     24 C25          8.7850     5.7240    -2.8980 ca         1 0NF       0.094600
     25 N24          8.0560     4.5340    -2.7930 ns         1 0NF      -0.487100
     26 O23          9.3430     3.8090    -1.1380 o          1 0NF      -0.566100
     27 C19          8.2970     1.3950    -0.7500 c3         1 0NF      -0.066400
     28 C18          7.7160    -0.0110    -0.8840 c3         1 0NF      -0.038100
     29 C16          5.5290     1.1960    -1.2800 ca         1 0NF      -0.040300
     30 C14          5.5090    -1.1290    -0.7130 ca         1 0NF      -0.103000
     31 C12          3.4420     0.0100    -1.0960 ca         1 0NF       0.108100
     32 O11          2.0850     0.0000    -1.1650 os         1 0NF      -0.241200
     33 C1           1.3050    -0.0000     2.3900 ca         1 0NF       0.487200
     34 N2          -0.0140    -0.0010     2.3540 nb         1 0NF      -0.749000
     35 C3          -0.6820    -0.0060     1.2090 ca         1 0NF       0.591200
     36 C9          -2.0540    -0.8020    -1.1320 c3         1 0NF      -0.154400
     37 O31         -3.9790    -0.3460     0.1420 o          1 0NF      -0.612500
     38 N7          -2.0770    -0.0050     1.2150 ns         1 0NF      -0.537400
     39 H6           3.1310     0.0010     1.2710 ha         1 0NF       0.153000
     40 H10         -0.1540    -0.4550    -2.0710 hc         1 0NF       0.063700
     41 H10A        -1.0030     1.0190    -1.5740 hc         1 0NF       0.063700
     42 H13          3.5940    -2.0680    -0.5780 ha         1 0NF       0.154000
     43 H17          3.6040     2.0850    -1.5980 ha         1 0NF       0.141000
     44 H20          7.7790     1.7370    -2.7980 hc         1 0NF       0.065700
     45 H21          6.4400     2.1440    -2.5490 hc         1 0NF       0.081700
     46 H21A         5.7130     3.4520    -1.6660 hc         1 0NF       0.081700
     47 H26         10.6670     4.7940    -2.4460 ha         1 0NF       0.204000
     48 H28         10.7920     8.9970    -3.1890 ha         1 0NF       0.119000
     49 HN33         8.3150    11.3250    -3.0970 hn         1 0NF       0.454467
     50 HN3A         9.7640    10.6660    -3.4700 hn         1 0NF       0.454467
     51 H38          6.2790    10.3140    -3.2040 hc         1 0NF       0.076200
     52 H38A         6.1480     8.6220    -3.7040 hc         1 0NF       0.076200
     53 H38B         6.7320     9.0230    -2.0830 hc         1 0NF       0.076200
     54 H39          7.6240    10.4790    -5.4190 hc         1 0NF       0.076200
     55 H39A         9.1470     9.5890    -5.5560 hc         1 0NF       0.076200
     56 H39B         7.6060     8.7220    -5.6220 hc         1 0NF       0.076200
     57 H30          7.0670     6.9190    -3.3740 ha         1 0NF       0.149000
     58 HN24         7.2810     4.3670    -3.4040 hn         1 0NF       0.336500
     59 H19          9.3710     1.3460    -0.8760 hc         1 0NF       0.071200
     60 H19A         8.0130     1.8030     0.2120 hc         1 0NF       0.071200
     61 H18          8.0960    -0.4560    -1.7950 hc         1 0NF       0.064200
     62 H18A         7.9930    -0.5840    -0.0070 hc         1 0NF       0.064200
     63 H14          6.0480    -2.0340    -0.4630 ha         1 0NF       0.145000
     64 H1           1.8120    -0.0000     3.3480 h4         1 0NF       0.031100
     65 H9          -1.8160    -1.8560    -1.0600 hc         1 0NF       0.082700
     66 H9A         -2.6950    -0.6300    -1.9870 hc         1 0NF       0.082700
     67 HN7         -2.5680     0.2670     2.0430 hn         1 0NF       0.352500
     68 H333         9.0670    10.2920    -2.0780 hn         1 0NF       0.454467
     69 C32          8.1590     9.3740    -3.6550 c3         1 0NF       0.177500
@<TRIPOS>BOND
     1     1     2 ar
     2     1     5 1
     3     1    35 ar
     4     2     3 ar
     5     2    32 1
     6     3    33 ar
     7     4    36 1
     8     4    37 2
     9     4    38 1
    10     5    36 1
    11     6    30 ar
    12     6    31 ar
    13     7    28 1
    14     7    29 ar
    15     7    30 ar
    16     8    29 ar
    17     8    31 ar
    18     9    10 1
    19     9    11 1
    20     9    27 1
    21    10    29 1
    22    11    25 1
    23    11    26 2
    24    12    19 ar
    25    12    24 ar
    26    13    17 ar
    27    13    19 ar
    28    14    69 1
    29    69    15 1
    30    69    16 1
    31    69    17 1
    32    17    18 ar
    33    18    24 ar
    34    19    20 1
    35    20    21 1
    36    20    22 1
    37    20    23 1
    38    24    25 1
    39    27    28 1
    40    31    32 1
    41    33    34 ar
    42    34    35 ar
    43    35    38 1
    44     3    39 1
    45     5    40 1
    46     5    41 1
    47     6    42 1
    48     8    43 1
    49     9    44 1
    50    10    45 1
    51    10    46 1
    52    12    47 1
    53    13    48 1
    54    14    49 1
    55    14    50 1
    56    15    51 1
    57    15    52 1
    58    15    53 1
    59    16    54 1
    60    16    55 1
    61    16    56 1
    62    18    57 1
    63    25    58 1
    64    27    59 1
    65    27    60 1
    66    28    61 1
    67    28    62 1
    68    30    63 1
    69    33    64 1
    70    36    65 1
    71    36    66 1
    72    38    67 1
    73    68    14 1
@<TRIPOS>SUBSTRUCTURE
     1 0NF         1 TEMP              0 ****  ****    0 ROOT
