@<TRIPOS>MOLECULE
0NF
   69    73     1     0     0
SMALL
bcc


@<TRIPOS>ATOM
      1 C4           0.1970     0.1250    -0.1010 ca         1 0NF      -0.257600
      2 C5           1.5720    -0.1420     0.0110 ca         1 0NF       0.174100
      3 C6           2.2480     0.0960     1.2140 ca         1 0NF      -0.338300
      4 C8          -2.5250     0.9700    -0.2310 c          1 0NF       0.703500
      5 C10         -0.5650    -0.1800    -1.3340 c3         1 0NF      -0.020100
      6 C13          4.2550    -1.6690    -1.6960 ca         1 0NF      -0.125000
      7 C15          6.2630    -0.3020    -1.7970 ca         1 0NF      -0.095300
      8 C17          4.1750     0.6850    -1.0550 ca         1 0NF      -0.159000
      9 C20          7.5140     2.2530    -1.8360 c3         1 0NF      -0.125700
     10 C21          6.1930     2.1230    -1.0890 c3         1 0NF      -0.029100
     11 C22          8.2410     3.5100    -1.3670 c          1 0NF       0.673100
     12 C26         10.1120     5.8190    -0.8160 ca         1 0NF      -0.083000
     13 C28         11.7930     7.3110    -1.7450 ca         1 0NF      -0.135000
     14 N33         12.1810     8.4970    -4.4680 nz         1 0NF      -0.854600
     15 C38         14.1010     7.1430    -3.6180 c3         1 0NF      -0.131600
     16 C39         12.5700     6.1990    -5.3300 c3         1 0NF      -0.131600
     17 C29         11.7460     6.6190    -2.9590 ca         1 0NF      -0.138300
     18 C30         10.8910     5.5260    -3.1070 ca         1 0NF      -0.155000
     19 C27         10.9690     6.9050    -0.6950 ca         1 0NF      -0.122300
     20 C34         11.0380     7.6760     0.6280 c3         1 0NF       0.688200
     21 F37         11.2730     9.0210     0.4620 f          1 0NF      -0.221300
     22 F35          9.8990     7.6120     1.3850 f          1 0NF      -0.221300
     23 F36         12.0450     7.2520     1.4580 f          1 0NF      -0.221300
     24 C25         10.0630     5.0980    -2.0370 ca         1 0NF       0.109600
     25 N24          9.2420     3.9890    -2.2290 ns         1 0NF      -0.482100
     26 O23          7.9780     4.0840    -0.3010 o          1 0NF      -0.553100
     27 C19          8.3810     1.0280    -1.5840 c3         1 0NF      -0.074400
     28 C18          7.7090    -0.2120    -2.1370 c3         1 0NF      -0.031100
     29 C16          5.5420     0.8070    -1.3320 ca         1 0NF      -0.060300
     30 C14          5.6100    -1.5300    -1.9740 ca         1 0NF      -0.106000
     31 C12          3.5440    -0.5470    -1.2410 ca         1 0NF       0.106100
     32 O11          2.1670    -0.7130    -1.1060 os         1 0NF      -0.243200
     33 C1           1.4970     0.6010     2.2870 ca         1 0NF       0.456200
     34 N2           0.1890     0.8850     2.2380 nb         1 0NF      -0.716000
     35 C3          -0.4650     0.6520     1.0530 ca         1 0NF       0.566200
     36 C9          -1.7610     0.7290    -1.5120 c3         1 0NF      -0.148400
     37 O31         -3.7400     1.2250    -0.2140 o          1 0NF      -0.605500
     38 N7          -1.8340     0.9410     0.9810 ns         1 0NF      -0.548400
     39 C32         12.6420     7.0830    -4.0830 c3         1 0NF       0.221500
     40 H6           3.3180    -0.1160     1.3200 ha         1 0NF       0.158000
     41 H10          0.1050    -0.0910    -2.2320 hc         1 0NF       0.069200
     42 H10A        -0.9070    -1.2510    -1.2870 hc         1 0NF       0.069200
     43 H13          3.7370    -2.6280    -1.8350 ha         1 0NF       0.161000
     44 H17          3.6000     1.5480    -0.6880 ha         1 0NF       0.153000
     45 H20          7.2960     2.3330    -2.9380 hc         1 0NF       0.073700
     46 H21          5.5090     2.9560    -1.4010 hc         1 0NF       0.075200
     47 H21A         6.3760     2.2420     0.0160 hc         1 0NF       0.075200
     48 H26          9.4750     5.5320     0.0440 ha         1 0NF       0.216000
     49 H28         12.4770     8.1590    -1.5840 ha         1 0NF       0.146000
     50 HN33        12.1870     9.0940    -3.6360 hn         1 0NF       0.456467
     51 HN3A        12.8110     8.8830    -5.1740 hn         1 0NF       0.456467
     52 H38         14.2420     7.8480    -2.7630 hc         1 0NF       0.080867
     53 H38A        14.3960     6.1200    -3.2710 hc         1 0NF       0.080867
     54 H38B        14.7780     7.4390    -4.4550 hc         1 0NF       0.080867
     55 H39         12.8840     5.1630    -5.0460 hc         1 0NF       0.080867
     56 H39A        11.5380     6.1550    -5.7550 hc         1 0NF       0.080867
     57 H39B        13.2730     6.5660    -6.1180 hc         1 0NF       0.080867
     58 H30         10.8600     4.9730    -4.0600 ha         1 0NF       0.146000
     59 HN24         9.3840     3.4800    -3.0750 hn         1 0NF       0.325500
     60 H19          9.3840     1.1520    -2.0680 hc         1 0NF       0.053700
     61 H19A         8.5470     0.9120    -0.4800 hc         1 0NF       0.053700
     62 H18          8.2460    -1.1190    -1.7470 hc         1 0NF       0.058700
     63 H18A         7.8110    -0.2250    -3.2570 hc         1 0NF       0.058700
     64 H14          6.1810    -2.4000    -2.3360 ha         1 0NF       0.142000
     65 H1           1.9790     0.7940     3.2640 h4         1 0NF       0.031100
     66 H9          -1.4370     1.7330    -1.8960 hc         1 0NF       0.084200
     67 H9A         -2.4700     0.2890    -2.2620 hc         1 0NF       0.084200
     68 HN7         -2.3240     1.1860     1.8160 hn         1 0NF       0.349500
     69 H333        11.2300     8.4530    -4.8430 hn         1 0NF       0.456467
@<TRIPOS>BOND
     1     1     2 ar  
     2     1     5 1   
     3     1    35 ar  
     4     2     3 ar  
     5     2    32 1   
     6     3    33 ar  
     7     3    40 1   
     8     4    36 1   
     9     4    37 2   
    10     4    38 1   
    11     5    36 1   
    12     5    41 1   
    13     5    42 1   
    14     6    30 ar  
    15     6    31 ar  
    16     6    43 1   
    17     7    28 1   
    18     7    29 ar  
    19     7    30 ar  
    20     8    29 ar  
    21     8    31 ar  
    22     8    44 1   
    23     9    10 1   
    24     9    11 1   
    25     9    27 1   
    26     9    45 1   
    27    10    29 1   
    28    10    46 1   
    29    10    47 1   
    30    11    25 1   
    31    11    26 2   
    32    12    19 ar  
    33    12    24 ar  
    34    12    48 1   
    35    13    17 ar  
    36    13    19 ar  
    37    13    49 1   
    38    14    39 1   
    39    14    50 1   
    40    14    51 1   
    41    14    69 1   
    42    15    39 1   
    43    15    52 1   
    44    15    53 1   
    45    15    54 1   
    46    16    39 1   
    47    16    55 1   
    48    16    56 1   
    49    16    57 1   
    50    17    18 ar  
    51    17    39 1   
    52    18    24 ar  
    53    18    58 1   
    54    19    20 1   
    55    20    21 1   
    56    20    22 1   
    57    20    23 1   
    58    24    25 1   
    59    25    59 1   
    60    27    28 1   
    61    27    60 1   
    62    27    61 1   
    63    28    62 1   
    64    28    63 1   
    65    30    64 1   
    66    31    32 1   
    67    33    34 ar  
    68    33    65 1   
    69    34    35 ar  
    70    35    38 1   
    71    36    66 1   
    72    36    67 1   
    73    38    68 1   
@<TRIPOS>SUBSTRUCTURE
     1 0NF         1 TEMP              0 ****  ****    0 ROOT
