@<TRIPOS>MOLECULE
0NH
   42    45     1     0     0
SMALL
bcc


@<TRIPOS>ATOM
      1 C1           1.5290    -0.1120     0.0870 c3         1 0NH      -0.112100
      2 C2          -0.0030     0.0080    -0.0320 c3         1 0NH       0.088700
      3 C3          -0.5810     0.1880     1.3920 c3         1 0NH      -0.111400
      4 C4          -0.2010     1.5310     2.0120 c3         1 0NH       0.225800
      5 N5          -0.4560     2.6700     1.1700 n3         1 0NH      -0.821500
      6 C6           0.0510     2.5600    -0.1720 c3         1 0NH       0.225800
      7 C7          -0.3200     1.2600    -0.8840 c3         1 0NH      -0.111400
      8 S8          -1.2240     4.0000     1.7080 s6         1 0NH       1.461900
      9 O9          -0.8430     5.1210     0.9430 o          1 0NH      -0.648800
     10 O10         -1.0920     4.1010     3.1090 o          1 0NH      -0.648800
     11 C11         -2.8610     3.6760     1.3680 c3         1 0NH      -0.367300
     12 N12         -0.5610    -1.1890    -0.6600 na         1 0NH      -0.155300
     13 C13          0.1910    -2.3070    -1.1010 cc         1 0NH       0.393700
     14 N14         -0.5600    -3.2760    -1.6440 nd         1 0NH      -0.540100
     15 C15         -1.8790    -2.8030    -1.5730 ca         1 0NH      -0.089900
     16 C16         -1.8960    -1.4860    -0.9540 ca         1 0NH      -0.001200
     17 C17         -3.1350    -0.8470    -0.7960 ca         1 0NH      -0.190100
     18 C18         -3.6400     0.3910    -0.2700 cc         1 0NH      -0.192200
     19 C19         -5.0260     0.3800    -0.4350 cd         1 0NH      -0.116100
     20 N20         -5.4290    -0.8060    -1.0400 na         1 0NH      -0.269100
     21 C22         -4.2920    -1.5920    -1.2800 ca         1 0NH       0.421800
     22 N23         -4.2800    -2.8380    -1.8660 nb         1 0NH      -0.683000
     23 C24         -3.0920    -3.4110    -1.9990 ca         1 0NH       0.485200
     24 H1           2.0020    -0.2140    -0.9190 hc         1 0NH       0.052700
     25 H1A          1.9310     0.8110     0.5690 hc         1 0NH       0.052700
     26 H1B          1.8130    -0.9870     0.7210 hc         1 0NH       0.052700
     27 H3          -0.1880    -0.6230     2.0580 hc         1 0NH       0.068700
     28 H3A         -1.6990     0.0890     1.3600 hc         1 0NH       0.068700
     29 H4          -0.7770     1.6560     2.9760 h1         1 0NH       0.059700
     30 H4A          0.8970     1.5110     2.2790 h1         1 0NH       0.059700
     31 H6           1.1760     2.6560    -0.1480 h1         1 0NH       0.059700
     32 H6A         -0.3450     3.4270    -0.7810 h1         1 0NH       0.059700
     33 H7          -1.4100     1.2710    -1.1480 hc         1 0NH       0.068700
     34 H7A          0.2610     1.2150    -1.8420 hc         1 0NH       0.068700
     35 H11         -3.4990     4.5350     1.7000 h1         1 0NH       0.114367
     36 H11A        -3.0710     3.5360     0.2800 h1         1 0NH       0.114367
     37 H11B        -3.2560     2.7740     1.8960 h1         1 0NH       0.114367
     38 H13          1.2810    -2.3560    -0.9980 h5         1 0NH       0.072800
     39 H18         -3.0630     1.1970     0.1760 ha         1 0NH       0.151000
     40 H19         -5.7610     1.1390    -0.1620 h4         1 0NH       0.169000
     41 HN20        -6.3540    -1.0640    -1.2680 hn         1 0NH       0.312700
     42 H24         -3.0770    -4.4120    -2.4690 h4         1 0NH       0.040100
@<TRIPOS>BOND
     1     1     2 1   
     2     1    24 1   
     3     1    25 1   
     4     1    26 1   
     5     2     3 1   
     6     2     7 1   
     7     2    12 1   
     8     3     4 1   
     9     3    27 1   
    10     3    28 1   
    11     4     5 1   
    12     4    29 1   
    13     4    30 1   
    14     5     6 1   
    15     5     8 1   
    16     6     7 1   
    17     6    31 1   
    18     6    32 1   
    19     7    33 1   
    20     7    34 1   
    21     8     9 2   
    22     8    10 2   
    23     8    11 1   
    24    11    35 1   
    25    11    36 1   
    26    11    37 1   
    27    12    13 1   
    28    12    16 1   
    29    13    14 2   
    30    13    38 1   
    31    14    15 1   
    32    15    16 ar  
    33    15    23 ar  
    34    16    17 ar  
    35    17    18 1   
    36    17    21 ar  
    37    18    19 2   
    38    18    39 1   
    39    19    20 1   
    40    19    40 1   
    41    20    21 1   
    42    20    41 1   
    43    21    22 ar  
    44    22    23 ar  
    45    23    42 1   
@<TRIPOS>SUBSTRUCTURE
     1 0NH         1 TEMP              0 ****  ****    0 ROOT
