@<TRIPOS>MOLECULE
molecule
   42    45     1     0     0
SMALL
bcc


@<TRIPOS>ATOM
      1 C1           1.5310     0.0000     0.0000 c3         1 0NH      -0.107100
      2 C2           0.0000     0.0000     0.0000 c3         1 0NH       0.069700
      3 C3          -0.5090     0.0000     1.4430 c3         1 0NH      -0.115900
      4 C4          -2.0410    -0.0360     1.4390 c3         1 0NH       0.228300
      5 N5          -2.5380     1.0800     0.6240 n3         1 0NH      -0.816500
      6 C6          -2.0410     1.2270    -0.7510 c3         1 0NH       0.228300
      7 C7          -0.5100     1.2480    -0.7230 c3         1 0NH      -0.115900
      8 S8          -3.6370     2.1530     1.2430 s6         1 0NH       1.327900
      9 O9          -4.3220     2.6510     0.1010 o          1 0NH      -0.624300
     10 O10         -4.3220     1.4150     2.2440 o          1 0NH      -0.624300
     11 C11         -2.6240     3.4560     1.9940 c3         1 0NH      -0.252300
     12 N12         -0.4880    -1.1970    -0.6910 na         1 0NH      -0.133300
     13 C13         -1.1880    -1.2250    -1.8580 cc         1 0NH       0.399700
     14 N14         -1.4590    -2.4560    -2.1830 nd         1 0NH      -0.578100
     15 C15         -0.9510    -3.2960    -1.2480 ca         1 0NH      -0.065900
     16 C16         -0.3170    -2.4960    -0.2820 ca         1 0NH      -0.031200
     17 C17          0.3020    -3.1310     0.8040 ca         1 0NH      -0.219100
     18 C18          1.0390    -2.6680     1.9800 cc         1 0NH      -0.209200
     19 C19          1.3940    -3.7610     2.6730 cd         1 0NH      -0.102100
     20 N20          0.9420    -4.8830     2.0330 na         1 0NH      -0.264100
     21 C22          0.2690    -4.5320     0.8860 ca         1 0NH       0.466800
     22 N23         -0.3420    -5.2450    -0.0580 nb         1 0NH      -0.716000
     23 C24         -0.9390    -4.6860    -1.0850 ca         1 0NH       0.516200
     24 H1           1.8920     0.6670    -0.7740 hc         1 0NH       0.052367
     25 H1A          1.8920    -1.0030    -0.1910 hc         1 0NH       0.052367
     26 H1B          1.8920     0.3370     0.9640 hc         1 0NH       0.052367
     27 H3          -0.1710     0.8990     1.9450 hc         1 0NH       0.064950
     28 H3A         -0.1300    -0.8730     1.9590 hc         1 0NH       0.064950
     29 H4          -2.4080     0.0650     2.4530 h1         1 0NH       0.071200
     30 H4A         -2.3800    -0.9730     1.0160 h1         1 0NH       0.071200
     31 H6          -2.4090     2.1550    -1.1720 h1         1 0NH       0.071200
     32 H6A         -2.3810     0.3910    -1.3500 h1         1 0NH       0.071200
     33 H7          -0.1310     1.2570    -1.7380 hc         1 0NH       0.064950
     34 H7A         -0.1710     2.1330    -0.1980 hc         1 0NH       0.064950
     35 H11         -3.2690     4.2200     2.4110 h1         1 0NH       0.095033
     36 H11A        -2.0130     3.0300     2.7820 h1         1 0NH       0.095033
     37 H11B        -1.9840     3.8970     1.2390 h1         1 0NH       0.095033
     38 H13         -1.4750    -0.3530    -2.4330 h5         1 0NH       0.081800
     39 H18          1.2570    -1.6390     2.2410 ha         1 0NH       0.154000
     40 H19          1.9550    -3.7550     3.6000 h4         1 0NH       0.169000
     41 HN20         1.0800    -5.8210     2.3530 hn         1 0NH       0.306700
     42 H24         -1.4310    -5.3120    -1.8200 h4         1 0NH       0.039100
@<TRIPOS>BOND
     1     1     2 1
     2     2     3 1
     3     2     7 1
     4     2    12 1
     5     3     4 1
     6     4     5 1
     7     5     6 1
     8     5     8 1
     9     6     7 1
    10     8     9 2
    11     8    10 2
    12     8    11 1
    13    12    13 1
    14    12    16 1
    15    13    14 2
    16    14    15 1
    17    15    16 ar
    18    15    23 ar
    19    16    17 ar
    20    17    18 1
    21    17    21 ar
    22    18    19 2
    23    19    20 1
    24    20    21 1
    25    21    22 ar
    26    22    23 ar
    27     1    24 1
    28     1    25 1
    29     1    26 1
    30     3    27 1
    31     3    28 1
    32     4    29 1
    33     4    30 1
    34     6    31 1
    35     6    32 1
    36     7    33 1
    37     7    34 1
    38    11    35 1
    39    11    36 1
    40    11    37 1
    41    13    38 1
    42    18    39 1
    43    19    40 1
    44    20    41 1
    45    23    42 1
@<TRIPOS>SUBSTRUCTURE
     1 0NH         1 TEMP              0 ****  ****    0 ROOT
