@<TRIPOS>MOLECULE
0NJ
   28    30     1     0     0
SMALL
bcc


@<TRIPOS>ATOM
      1 F16          1.8610     2.4650    -0.7220 f          1 0NJ      -0.120900
      2 C11          2.2690     1.2080    -0.4460 ca         1 0NJ       0.171900
      3 C12          2.9060     0.9540     0.7870 ca         1 0NJ      -0.174000
      4 C13          3.3230    -0.3340     1.0990 ca         1 0NJ      -0.091000
      5 C14          3.1140    -1.3810     0.2000 ca         1 0NJ      -0.149000
      6 C15          2.4870    -1.1390    -1.0180 ca         1 0NJ      -0.089000
      7 C10          2.0560     0.1510    -1.3600 ca         1 0NJ      -0.151900
      8 C8           1.4030     0.3700    -2.6420 cc         1 0NJ       0.405800
      9 S7           0.1520    -0.7380    -3.1560 ss         1 0NJ      -0.039100
     10 C2          -0.0600     0.1300    -4.5880 ca         1 0NJ      -0.051100
     11 N9           1.6690     1.3550    -3.4860 nd         1 0NJ      -0.491100
     12 C3           0.8420     1.2440    -4.6120 ca         1 0NJ       0.048400
     13 C4           0.8430     2.1190    -5.7220 ca         1 0NJ      -0.041000
     14 C5          -0.0260     1.8870    -6.7670 ca         1 0NJ      -0.154000
     15 C6          -0.9130     0.7800    -6.7290 ca         1 0NJ       0.141100
     16 C1          -0.9370    -0.1000    -5.6490 ca         1 0NJ      -0.179000
     17 O17         -1.7240     0.6700    -7.8400 os         1 0NJ      -0.322900
     18 C18         -2.6400    -0.4190    -7.8490 c3         1 0NJ       0.111700
     19 H1           3.0660     1.7860     1.4880 ha         1 0NJ       0.152000
     20 H2           3.8220    -0.5270     2.0610 ha         1 0NJ       0.140000
     21 H3           3.4470    -2.3980     0.4520 ha         1 0NJ       0.141000
     22 H4           2.3290    -1.9650    -1.7300 ha         1 0NJ       0.145000
     23 H5           1.5340     2.9760    -5.7420 ha         1 0NJ       0.156000
     24 H6          -0.0500     2.5500    -7.6440 ha         1 0NJ       0.155000
     25 H7          -1.6240    -0.9560    -5.6190 ha         1 0NJ       0.145000
     26 H8          -3.1770    -0.2980    -8.8240 h1         1 0NJ       0.046700
     27 H9          -2.0940    -1.3930    -7.8170 h1         1 0NJ       0.046700
     28 H10         -3.3530    -0.3410    -6.9930 h1         1 0NJ       0.046700
@<TRIPOS>BOND
     1     1     2 1   
     2     2     3 ar  
     3     2     7 ar  
     4     3     4 ar  
     5     3    19 1   
     6     4     5 ar  
     7     4    20 1   
     8     5     6 ar  
     9     5    21 1   
    10     6     7 ar  
    11     6    22 1   
    12     7     8 1   
    13     8     9 1   
    14     8    11 2   
    15     9    10 1   
    16    10    12 ar  
    17    10    16 ar  
    18    11    12 1   
    19    12    13 ar  
    20    13    14 ar  
    21    13    23 1   
    22    14    15 ar  
    23    14    24 1   
    24    15    16 ar  
    25    15    17 1   
    26    16    25 1   
    27    17    18 1   
    28    18    26 1   
    29    18    27 1   
    30    18    28 1   
@<TRIPOS>SUBSTRUCTURE
     1 0NJ         1 TEMP              0 ****  ****    0 ROOT
