@<TRIPOS>MOLECULE
molecule
   28    30     1     0     0
SMALL
bcc


@<TRIPOS>ATOM
      1 F16          0.0000     0.0000     0.0000 f          1 0NJ      -0.129900
      2 C11          1.3510     0.0000     0.0000 ca         1 0NJ       0.142900
      3 C12          2.0440     0.0000     1.1960 ca         1 0NJ      -0.168000
      4 C13          3.4270    -0.0010     1.1970 ca         1 0NJ      -0.092000
      5 C14          4.1260    -0.0030     0.0020 ca         1 0NJ      -0.149000
      6 C15          3.4480    -0.0030    -1.1990 ca         1 0NJ      -0.061000
      7 C10          2.0520    -0.0080    -1.2090 ca         1 0NJ      -0.138900
      8 C8           1.3180    -0.0080    -2.4930 cc         1 0NJ       0.454800
      9 S7          -0.4320    -0.0130    -2.6480 ss         1 0NJ      -0.080100
     10 C2          -0.2900    -0.0110    -4.4040 ca         1 0NJ      -0.026100
     11 N9           1.8730     0.0010    -3.6570 nd         1 0NJ      -0.570100
     12 C3           1.0710    -0.0060    -4.7370 ca         1 0NJ       0.083400
     13 C4           1.4280     0.0010    -6.1030 ca         1 0NJ      -0.034000
     14 C5           0.4700    -0.0060    -7.0700 ca         1 0NJ      -0.212000
     15 C6          -0.8800    -0.0230    -6.7330 ca         1 0NJ       0.151100
     16 C1          -1.2590    -0.0130    -5.4050 ca         1 0NJ      -0.130000
     17 O17         -1.8260    -0.0300    -7.7100 os         1 0NJ      -0.324900
     18 C18         -1.3620    -0.0200    -9.0620 c3         1 0NJ       0.128700
     19 H1           1.5030     0.0010     2.1350 ha         1 0NJ       0.149000
     20 H2           3.9660    -0.0010     2.1360 ha         1 0NJ       0.139000
     21 H3           5.2090    -0.0010     0.0100 ha         1 0NJ       0.139000
     22 H4           3.9970    -0.0070    -2.1320 ha         1 0NJ       0.162000
     23 H5           2.4740     0.0140    -6.3830 ha         1 0NJ       0.145000
     24 H6           0.7620    -0.0140    -8.1130 ha         1 0NJ       0.141000
     25 H7          -2.3100    -0.0260    -5.1410 ha         1 0NJ       0.152000
     26 H8          -0.7680     0.8700    -9.2340 h1         1 0NJ       0.043033
     27 H9          -2.2100    -0.0240    -9.7350 h1         1 0NJ       0.043033
     28 H10         -0.7550    -0.8990    -9.2420 h1         1 0NJ       0.043033
@<TRIPOS>BOND
     1     5     6 ar
     2     5     4 ar
     3     6     7 ar
     4     4     3 ar
     5    13    12 ar
     6    13    14 ar
     7    11    12 1
     8    11     8 2
     9     7     8 1
    10     7     2 ar
    11     3     2 ar
    12    12    10 ar
    13    14    15 ar
    14     8     9 1
    15     2     1 1
    16    10     9 1
    17    10    16 ar
    18    15    16 ar
    19    15    17 1
    20    17    18 1
    21     3    19 1
    22     4    20 1
    23     5    21 1
    24     6    22 1
    25    13    23 1
    26    14    24 1
    27    16    25 1
    28    18    26 1
    29    18    27 1
    30    18    28 1
@<TRIPOS>SUBSTRUCTURE
     1 0NJ         1 TEMP              0 ****  ****    0 ROOT
