@<TRIPOS>MOLECULE
0NJ
   28    30     1     0     0
SMALL
bcc


@<TRIPOS>ATOM
      1 F16          0.0000     0.0000     0.0000 f          1 0NJ      -0.118900
      2 C11          1.3510     0.0000     0.0000 ca         1 0NJ       0.121900
      3 C12          2.0440     0.0000     1.1960 ca         1 0NJ      -0.136000
      4 C13          3.4270    -0.0010     1.1970 ca         1 0NJ      -0.064000
      5 C14          4.1260    -0.0030     0.0020 ca         1 0NJ      -0.119000
      6 C15          3.4480    -0.0030    -1.1990 ca         1 0NJ      -0.041000
      7 C10          2.0520    -0.0080    -1.2090 ca         1 0NJ      -0.132900
      8 C8           1.3180    -0.0080    -2.4930 cc         1 0NJ       0.440800
      9 S7          -0.4320    -0.0130    -2.6480 ss         1 0NJ      -0.191100
     10 C2          -0.2900    -0.0110    -4.4040 ca         1 0NJ       0.023900
     11 N9           1.8730     0.0010    -3.6570 nd         1 0NJ      -0.435100
     12 C3           1.0710    -0.0060    -4.7370 ca         1 0NJ       0.024400
     13 C4           1.4280     0.0010    -6.1030 ca         1 0NJ       0.003000
     14 C5           0.4700    -0.0060    -7.0700 ca         1 0NJ      -0.202000
     15 C6          -0.8800    -0.0230    -6.7330 ca         1 0NJ       0.163100
     16 C1          -1.2590    -0.0130    -5.4050 ca         1 0NJ      -0.101000
     17 O17         -1.8260    -0.0300    -7.7100 os         1 0NJ      -0.303900
     18 C18         -1.3620    -0.0200    -9.0620 c3         1 0NJ       0.244700
     19 H1           1.5030     0.0010     2.1350 ha         1 0NJ       0.121000
     20 H2           3.9660    -0.0010     2.1360 ha         1 0NJ       0.106000
     21 H3           5.2090    -0.0010     0.0100 ha         1 0NJ       0.109000
     22 H4           3.9970    -0.0070    -2.1320 ha         1 0NJ       0.127000
     23 H5           2.4740     0.0140    -6.3830 ha         1 0NJ       0.110000
     24 H6           0.7620    -0.0140    -8.1130 ha         1 0NJ       0.124000
     25 H7          -2.3100    -0.0260    -5.1410 ha         1 0NJ       0.127000
     26 H8          -0.7680     0.8700    -9.2340 h1         1 0NJ      -0.000967
     27 H9          -0.7550    -0.8990    -9.2420 h1         1 0NJ      -0.000967
     28 H10         -2.2100    -0.0240    -9.7350 h1         1 0NJ      -0.000967
@<TRIPOS>BOND
     1     1     2 1   
     2     2     3 ar  
     3     2     7 ar  
     4     3     4 ar  
     5     3    19 1   
     6     4     5 ar  
     7     4    20 1   
     8     5     6 ar  
     9     5    21 1   
    10     6     7 ar  
    11     6    22 1   
    12     7     8 1   
    13     8     9 1   
    14     8    11 2   
    15     9    10 1   
    16    10    12 ar  
    17    10    16 ar  
    18    11    12 1   
    19    12    13 ar  
    20    13    14 ar  
    21    13    23 1   
    22    14    15 ar  
    23    14    24 1   
    24    15    16 ar  
    25    15    17 1   
    26    16    25 1   
    27    17    18 1   
    28    18    26 1   
    29    18    27 1   
    30    18    28 1   
@<TRIPOS>SUBSTRUCTURE
     1 0NJ         1 TEMP              0 ****  ****    0 ROOT
