@<TRIPOS>MOLECULE
molecule
   45    46     1     0     0
SMALL
bcc


@<TRIPOS>ATOM
      1 N1           0.0000     0.0000     0.0000 nu         1 0NK      -0.891900
      2 C1           3.7040     0.0000     0.0000 ca         1 0NK       0.435600
      3 C2           2.3790     0.0000     0.5030 ca         1 0NK      -0.288600
      4 C3           4.7830    -0.0010     0.8990 ca         1 0NK       0.067800
      5 N2           3.8890     0.0060    -1.3290 nb         1 0NK      -0.755000
      6 C4           2.1570    -0.0000     1.8850 ca         1 0NK      -0.202000
      7 C5           1.3120     0.0000    -0.4270 ca         1 0NK       0.742200
      8 C6           4.5340    -0.0020     2.2570 ca         1 0NK       0.101100
      9 C7           2.8610     0.0120    -2.1440 ca         1 0NK       0.713900
     10 C8           3.2210    -0.0010     2.7430 ca         1 0NK       0.120100
     11 N3           1.6070     0.0010    -1.7210 nb         1 0NK      -0.828000
     12 O2           5.5760    -0.0020     3.1310 os         1 0NK      -0.336900
     13 C9           6.6700    -1.2760     0.2130 c3         1 0NK       0.141700
     14 O3           3.0010    -0.0020     4.0850 os         1 0NK      -0.313900
     15 C10          6.0730     1.2700     3.5490 c3         1 0NK       0.141700
     16 C11          1.6400    -0.0010     4.5200 c3         1 0NK       0.126700
     17 C12         -1.0890     0.0010    -0.9800 c3         1 0NK       0.240500
     18 C13         -2.3400    -0.6160    -0.3510 c3         1 0NK      -0.099400
     19 C14         -1.3890     1.4390    -1.4070 c3         1 0NK      -0.099400
     20 C15         -2.0790    -2.0910    -0.0370 c3         1 0NK      -0.090600
     21 C16         -0.1800     2.0140    -2.1470 c3         1 0NK      -0.090600
     22 H1          -0.2070     0.0130     0.9790 hn         1 0NK       0.445800
     23 H2           1.1450     0.0000     2.2730 ha         1 0NK       0.133000
     24 H3           3.0480     0.0130    -3.2110 h5         1 0NK       0.056100
     25 H4           7.7480    -1.1680     0.2270 h1         1 0NK       0.039367
     26 H5           6.3600    -1.6800    -0.7430 h1         1 0NK       0.039367
     27 H6           6.3640    -1.9480     1.0060 h1         1 0NK       0.039367
     28 H7           5.6710     2.0440     2.9070 h1         1 0NK       0.038700
     29 H8           5.7710     1.4580     4.5730 h1         1 0NK       0.038700
     30 H9           7.1550     1.2730     3.4860 h1         1 0NK       0.038700
     31 H10          1.1460    -0.8970     4.1640 h1         1 0NK       0.041700
     32 H11          1.1350     0.8720     4.1240 h1         1 0NK       0.041700
     33 H12          1.6070     0.0240     5.6030 h1         1 0NK       0.041700
     34 H13         -0.7970    -0.5800    -1.8460 h1         1 0NK       0.085700
     35 H14         -3.1700    -0.5350    -1.0430 hc         1 0NK       0.045200
     36 H15         -2.5820    -0.0890     0.5640 hc         1 0NK       0.045200
     37 H16         -1.5950     2.0410    -0.5300 hc         1 0NK       0.045200
     38 H17         -2.2520     1.4490    -2.0620 hc         1 0NK       0.045200
     39 H18         -1.4860    -2.5290    -0.8290 hc         1 0NK       0.038533
     40 H19         -1.5440    -2.1710     0.9020 hc         1 0NK       0.038533
     41 H20         -3.0240    -2.6160     0.0410 hc         1 0NK       0.038533
     42 H21          0.1700     1.2960    -2.8790 hc         1 0NK       0.038533
     43 H22         -0.4660     2.9300    -2.6490 hc         1 0NK       0.038533
     44 H23          0.6120     2.2220    -1.4380 hc         1 0NK       0.038533
     45 O1           6.0620    -0.0020     0.4350 os         1 0NK      -0.327900
@<TRIPOS>BOND
     1    13    45 1   
     2    45     4 1   
     3    15    12 1   
     4    12     8 1   
     5     4     8 ar  
     6     4     2 ar  
     7     8    10 ar  
     8     5     2 ar  
     9     5     9 ar  
    10     2     3 ar  
    11    10    14 1   
    12    10     6 ar  
    13    14    16 1   
    14     9    11 ar  
    15     3     6 ar  
    16     3     7 ar  
    17    11     7 ar  
    18     7     1 1   
    19    20    18 1   
    20     1    17 1   
    21    18    17 1   
    22    17    19 1   
    23    19    21 1   
    24     1    22 1   
    25     6    23 1   
    26     9    24 1   
    27    13    25 1   
    28    13    26 1   
    29    13    27 1   
    30    15    28 1   
    31    15    29 1   
    32    15    30 1   
    33    16    31 1   
    34    16    32 1   
    35    16    33 1   
    36    17    34 1   
    37    18    35 1   
    38    18    36 1   
    39    19    37 1   
    40    19    38 1   
    41    20    39 1   
    42    20    40 1   
    43    20    41 1   
    44    21    42 1   
    45    21    43 1   
    46    21    44 1   
@<TRIPOS>SUBSTRUCTURE
     1 0NK         1 TEMP              0 ****  ****    0 ROOT
