@<TRIPOS>MOLECULE
0NK
   45    46     1     0     0
SMALL
bcc


@<TRIPOS>ATOM
      1 N1          -0.0100     0.6530    -0.0890 nu         1 0NK      -0.844900
      2 C1           3.7190     0.4990     0.0600 ca         1 0NK       0.393600
      3 C2           2.3700     0.4770     0.5290 ca         1 0NK      -0.252600
      4 C3           4.7780     0.2760     1.0110 ca         1 0NK       0.072800
      5 N2           4.0190     0.7210    -1.2720 nb         1 0NK      -0.723000
      6 C4           2.0930     0.2190     1.8890 ca         1 0NK      -0.193000
      7 C5           1.3210     0.7160    -0.4770 ca         1 0NK       0.705200
      8 C6           4.4830     0.0260     2.3480 ca         1 0NK       0.078100
      9 C7           2.9830     0.9080    -2.0870 ca         1 0NK       0.666900
     10 C8           3.1230    -0.0050     2.7820 ca         1 0NK       0.114100
     11 N3           1.6470     0.9310    -1.7750 nb         1 0NK      -0.782000
     12 O2           5.5080    -0.3230     3.2080 os         1 0NK      -0.307900
     13 C9           6.6430     1.2080    -0.1570 c3         1 0NK       0.126700
     14 O3           2.9540    -0.2340     4.1330 os         1 0NK      -0.317900
     15 C10          5.7820     0.6570     4.2100 c3         1 0NK       0.116700
     16 C11          1.6300    -0.5350     4.5600 c3         1 0NK       0.111700
     17 C12         -1.1180     1.0230    -0.9500 c3         1 0NK       0.211500
     18 C13         -1.5510     2.4930    -0.7980 c3         1 0NK      -0.094900
     19 C14         -2.3480     0.1370    -0.6660 c3         1 0NK      -0.094900
     20 C15         -0.4890     3.4650    -1.2360 c3         1 0NK      -0.093100
     21 C16         -2.1070    -1.3110    -0.9970 c3         1 0NK      -0.093100
     22 H1          -0.1850     0.7810     0.8810 hn         1 0NK       0.418800
     23 H2           1.0590     0.1700     2.2540 ha         1 0NK       0.135000
     24 H3           3.2110     1.0750    -3.1610 h5         1 0NK       0.051100
     25 H4           6.6390     0.8650    -1.2200 h1         1 0NK       0.046367
     26 H5           7.6940     1.3230     0.2130 h1         1 0NK       0.046367
     27 H6           6.0830     2.1650    -0.0470 h1         1 0NK       0.046367
     28 H7           6.1070     1.6150     3.7390 h1         1 0NK       0.043033
     29 H8           6.6170     0.1990     4.7970 h1         1 0NK       0.043033
     30 H9           4.8840     0.8200     4.8540 h1         1 0NK       0.043033
     31 H10          0.9770     0.3670     4.4680 h1         1 0NK       0.046367
     32 H11          1.2060    -1.3890     3.9780 h1         1 0NK       0.046367
     33 H12          1.7630    -0.8160     5.6360 h1         1 0NK       0.046367
     34 H13         -0.8180     0.8540    -2.0260 h1         1 0NK       0.095700
     35 H14         -2.4690     2.6430    -1.4260 hc         1 0NK       0.042700
     36 H15         -1.8420     2.6960     0.2660 hc         1 0NK       0.042700
     37 H16         -2.6580     0.2400     0.4060 hc         1 0NK       0.042700
     38 H17         -3.1920     0.5260    -1.2960 hc         1 0NK       0.042700
     39 H18          0.4070     3.4080    -0.5710 hc         1 0NK       0.038867
     40 H19         -0.8850     4.5090    -1.1990 hc         1 0NK       0.038867
     41 H20         -0.1600     3.2450    -2.2810 hc         1 0NK       0.038867
     42 H21         -1.3410    -1.7580    -0.3180 hc         1 0NK       0.038867
     43 H22         -1.7470    -1.4210    -2.0490 hc         1 0NK       0.038867
     44 H23         -3.0550    -1.8920    -0.8850 hc         1 0NK       0.038867
     45 O1           6.1070     0.1680     0.6630 os         1 0NK      -0.310900
@<TRIPOS>BOND
     1     1     7 1   
     2     1    17 1   
     3     1    22 1   
     4     2     3 ar  
     5     2     4 ar  
     6     2     5 ar  
     7     3     6 ar  
     8     3     7 ar  
     9     4     8 ar  
    10     4    45 1   
    11     5     9 ar  
    12     6    10 ar  
    13     6    23 1   
    14     7    11 ar  
    15     8    10 ar  
    16     8    12 1   
    17     9    11 ar  
    18     9    24 1   
    19    10    14 1   
    20    12    15 1   
    21    13    25 1   
    22    13    26 1   
    23    13    27 1   
    24    13    45 1   
    25    14    16 1   
    26    15    28 1   
    27    15    29 1   
    28    15    30 1   
    29    16    31 1   
    30    16    32 1   
    31    16    33 1   
    32    17    18 1   
    33    17    19 1   
    34    17    34 1   
    35    18    20 1   
    36    18    35 1   
    37    18    36 1   
    38    19    21 1   
    39    19    37 1   
    40    19    38 1   
    41    20    39 1   
    42    20    40 1   
    43    20    41 1   
    44    21    42 1   
    45    21    43 1   
    46    21    44 1   
@<TRIPOS>SUBSTRUCTURE
     1 0NK         1 TEMP              0 ****  ****    0 ROOT
