@<TRIPOS>MOLECULE
molecule
   48    51     1     0     0
SMALL
bcc


@<TRIPOS>ATOM
      1 C1           0.0000     0.0000     0.0000 c3         1 0NL      -0.105433
      2 C2           1.5300     0.0000     0.0000 c3         1 0NL       0.177800
      3 C3           2.0410     0.0000     1.4420 c3         1 0NL      -0.105433
      4 C4           2.0390    -1.2500    -0.7210 c3         1 0NL      -0.105433
      5 O5           2.0140     1.1850    -0.6850 os         1 0NL      -0.438900
      6 C6           1.6520     2.3770    -0.1740 c          1 0NL       0.754100
      7 O7           0.9520     2.4250     0.8170 o          1 0NL      -0.615000
      8 N8           2.0680     3.5160    -0.7620 ns         1 0NL      -0.574900
      9 C9           1.6740     4.8130    -0.2060 c3         1 0NL       0.132700
     10 C11          0.3090     5.2380    -0.7740 c3         1 0NL      -0.100400
     11 C12          0.5370     6.5670    -1.5230 c3         1 0NL      -0.099400
     12 C13          2.0430     6.5470    -1.8820 c3         1 0NL       0.046000
     13 C15          2.6850     5.8980    -0.6300 c3         1 0NL      -0.111400
     14 N16          2.5490     7.9070    -2.0800 na         1 0NL      -0.134300
     15 C17          2.5250     8.9170    -1.1660 cc         1 0NL       0.405700
     16 N18          3.0560     9.9890    -1.6750 nd         1 0NL      -0.578100
     17 C19          3.4570     9.7380    -2.9480 ca         1 0NL      -0.068900
     18 C20          3.1390     8.3980    -3.2170 ca         1 0NL      -0.027200
     19 C21          3.4610     7.8790    -4.4800 ca         1 0NL      -0.218100
     20 C22          3.2980     6.5790    -5.1290 cc         1 0NL      -0.197200
     21 C23          3.8070     6.6920    -6.3660 cd         1 0NL      -0.104100
     22 N24          4.2820     7.9620    -6.5570 na         1 0NL      -0.266100
     23 C26          4.0850     8.7140    -5.4210 ca         1 0NL       0.466800
     24 N27          4.3680     9.9770    -5.1140 nb         1 0NL      -0.718000
     25 C28          4.0760    10.5000    -3.9460 ca         1 0NL       0.516200
     26 H1          -0.3610     0.5780     0.8420 hc         1 0NL       0.049811
     27 H1A         -0.3610     0.4400    -0.9220 hc         1 0NL       0.049811
     28 H1B         -0.3610    -1.0180     0.0800 hc         1 0NL       0.049811
     29 H3           1.3960     0.6200     2.0530 hc         1 0NL       0.049811
     30 H3A          3.0500     0.3930     1.4680 hc         1 0NL       0.049811
     31 H3B          2.0380    -1.0130     1.8260 hc         1 0NL       0.049811
     32 H4           1.6780    -1.2500    -1.7420 hc         1 0NL       0.049811
     33 H4A          3.1230    -1.2510    -0.7210 hc         1 0NL       0.049811
     34 H4B          1.6780    -2.1340    -0.2100 hc         1 0NL       0.049811
     35 HN8          2.6760     3.4760    -1.5570 hn         1 0NL       0.322500
     36 H9           1.6230     4.7590     0.8750 h1         1 0NL       0.088700
     37 H11         -0.3980     5.3860     0.0340 hc         1 0NL       0.064200
     38 H11A        -0.0570     4.4840    -1.4610 hc         1 0NL       0.064200
     39 H12          0.3140     7.4070    -0.8780 hc         1 0NL       0.060200
     40 H12A        -0.0650     6.6010    -2.4230 hc         1 0NL       0.060200
     41 H13          2.2170     5.9350    -2.7590 h1         1 0NL       0.086700
     42 H15          3.6380     5.4490    -0.8840 hc         1 0NL       0.067700
     43 H15A         2.8030     6.6330     0.1570 hc         1 0NL       0.067700
     44 H17          2.1220     8.8380    -0.1630 h5         1 0NL       0.074800
     45 H22          2.8510     5.6930    -4.6940 ha         1 0NL       0.146000
     46 H23          3.8380     5.8980    -7.1010 h4         1 0NL       0.169000
     47 HN24         4.7100     8.2940    -7.3990 hn         1 0NL       0.306700
     48 H28          4.3170    11.5380    -3.7510 h4         1 0NL       0.038100
@<TRIPOS>BOND
     1     1     2 1   
     2     2     3 1   
     3     2     4 1   
     4     2     5 1   
     5     5     6 1   
     6     6     7 2   
     7     6     8 1   
     8     8     9 1   
     9     9    10 1   
    10     9    13 1   
    11    10    11 1   
    12    11    12 1   
    13    12    13 1   
    14    12    14 1   
    15    14    15 1   
    16    14    18 1   
    17    15    16 2   
    18    16    17 1   
    19    17    18 ar  
    20    17    25 ar  
    21    18    19 ar  
    22    19    20 1   
    23    19    23 ar  
    24    20    21 2   
    25    21    22 1   
    26    22    23 1   
    27    23    24 ar  
    28    24    25 ar  
    29     1    26 1   
    30     1    27 1   
    31     1    28 1   
    32     3    29 1   
    33     3    30 1   
    34     3    31 1   
    35     4    32 1   
    36     4    33 1   
    37     4    34 1   
    38     8    35 1   
    39     9    36 1   
    40    10    37 1   
    41    10    38 1   
    42    11    39 1   
    43    11    40 1   
    44    12    41 1   
    45    13    42 1   
    46    13    43 1   
    47    15    44 1   
    48    20    45 1   
    49    21    46 1   
    50    22    47 1   
    51    25    48 1   
@<TRIPOS>SUBSTRUCTURE
     1 0NL         1 TEMP              0 ****  ****    0 ROOT
