@<TRIPOS>MOLECULE
0NL
   48    51     1     0     0
SMALL
bcc


@<TRIPOS>ATOM
      1 C1           0.0000     0.0000     0.0000 c3         1 0NL      -0.028100
      2 C2           1.5300     0.0000     0.0000 c3         1 0NL       0.195800
      3 C3           2.0410     0.0000     1.4420 c3         1 0NL      -0.028100
      4 C4           2.0390    -1.2500    -0.7210 c3         1 0NL      -0.028100
      5 O5           2.0140     1.1850    -0.6850 os         1 0NL      -0.419900
      6 C6           1.6520     2.3770    -0.1740 c          1 0NL       0.688100
      7 O7           0.9520     2.4250     0.8170 o          1 0NL      -0.660000
      8 N8           2.0680     3.5160    -0.7620 ns         1 0NL      -0.179900
      9 C9           1.6740     4.8130    -0.2060 c3         1 0NL       0.034700
     10 C11          0.3090     5.2380    -0.7740 c3         1 0NL      -0.039400
     11 C12          0.5370     6.5670    -1.5230 c3         1 0NL      -0.037400
     12 C13          2.0430     6.5470    -1.8820 c3         1 0NL      -0.077000
     13 C15          2.6850     5.8980    -0.6300 c3         1 0NL      -0.051400
     14 N16          2.5490     7.9070    -2.0800 na         1 0NL       0.338700
     15 C17          2.5250     8.9170    -1.1660 cc         1 0NL       0.222700
     16 N18          3.0560     9.9890    -1.6750 nd         1 0NL      -0.485100
     17 C19          3.4570     9.7380    -2.9480 ca         1 0NL      -0.090900
     18 C20          3.1390     8.3980    -3.2170 ca         1 0NL      -0.195200
     19 C21          3.4610     7.8790    -4.4800 ca         1 0NL      -0.201100
     20 C22          3.2980     6.5790    -5.1290 cc         1 0NL      -0.167200
     21 C23          3.8070     6.6920    -6.3660 cd         1 0NL      -0.276100
     22 N24          4.2820     7.9620    -6.5570 na         1 0NL       0.284900
     23 C26          4.0850     8.7140    -5.4210 ca         1 0NL       0.225800
     24 N27          4.3680     9.9770    -5.1140 nb         1 0NL      -0.586000
     25 C28          4.0760    10.5000    -3.9460 ca         1 0NL       0.487200
     26 H1          -0.3610     0.5780     0.8420 hc         1 0NL       0.019144
     27 H1A         -0.3610     0.4400    -0.9220 hc         1 0NL       0.019144
     28 H1B         -0.3610    -1.0180     0.0800 hc         1 0NL       0.019144
     29 H3           1.3960     0.6200     2.0530 hc         1 0NL       0.019144
     30 H3A          3.0500     0.3930     1.4680 hc         1 0NL       0.019144
     31 H3B          2.0380    -1.0130     1.8260 hc         1 0NL       0.019144
     32 H4           1.6780    -1.2500    -1.7420 hc         1 0NL       0.019144
     33 H4A          3.1230    -1.2510    -0.7210 hc         1 0NL       0.019144
     34 H4B          1.6780    -2.1340    -0.2100 hc         1 0NL       0.019144
     35 HN8          2.6760     3.4760    -1.5570 hn         1 0NL       0.177500
     36 H9           1.6230     4.7590     0.8750 h1         1 0NL       0.062700
     37 H11         -0.3980     5.3860     0.0340 hc         1 0NL       0.032200
     38 H11A        -0.0570     4.4840    -1.4610 hc         1 0NL       0.032200
     39 H12          0.3140     7.4070    -0.8780 hc         1 0NL       0.030200
     40 H12A        -0.0650     6.6010    -2.4230 hc         1 0NL       0.030200
     41 H13          2.2170     5.9350    -2.7590 h1         1 0NL       0.063700
     42 H15          3.6380     5.4490    -0.8840 hc         1 0NL       0.037200
     43 H15A         2.8030     6.6330     0.1570 hc         1 0NL       0.037200
     44 H17          2.1220     8.8380    -0.1630 h5         1 0NL       0.031800
     45 H22          2.8510     5.6930    -4.6940 ha         1 0NL       0.123000
     46 H23          3.8380     5.8980    -7.1010 h4         1 0NL       0.142000
     47 HN24         4.7100     8.2940    -7.3990 hn         1 0NL       0.117700
     48 H28          4.3170    11.5380    -3.7510 h4         1 0NL      -0.014900
@<TRIPOS>BOND
     1     1     2 1   
     2     1    26 1   
     3     1    27 1   
     4     1    28 1   
     5     2     3 1   
     6     2     4 1   
     7     2     5 1   
     8     3    29 1   
     9     3    30 1   
    10     3    31 1   
    11     4    32 1   
    12     4    33 1   
    13     4    34 1   
    14     5     6 1   
    15     6     7 2   
    16     6     8 1   
    17     8     9 1   
    18     8    35 1   
    19     9    10 1   
    20     9    13 1   
    21     9    36 1   
    22    10    11 1   
    23    10    37 1   
    24    10    38 1   
    25    11    12 1   
    26    11    39 1   
    27    11    40 1   
    28    12    13 1   
    29    12    14 1   
    30    12    41 1   
    31    13    42 1   
    32    13    43 1   
    33    14    15 1   
    34    14    18 1   
    35    15    16 2   
    36    15    44 1   
    37    16    17 1   
    38    17    18 ar  
    39    17    25 ar  
    40    18    19 ar  
    41    19    20 1   
    42    19    23 ar  
    43    20    21 2   
    44    20    45 1   
    45    21    22 1   
    46    21    46 1   
    47    22    23 1   
    48    22    47 1   
    49    23    24 ar  
    50    24    25 ar  
    51    25    48 1   
@<TRIPOS>SUBSTRUCTURE
     1 0NL         1 TEMP              0 ****  ****    0 ROOT
