@<TRIPOS>MOLECULE
0NL
   49    52     1     0     0
SMALL
bcc


@<TRIPOS>ATOM
      1 C1           0.0900     0.6810    -1.2830 c3         1 0NL      -0.130100
      2 C2           1.1750     1.3190    -0.4430 c3         1 0NL       0.201800
      3 C3           0.6630     2.5190     0.3370 c3         1 0NL      -0.130100
      4 C4           1.8930     0.3260     0.4440 c3         1 0NL      -0.130100
      5 O5           2.1720     1.9720    -1.3520 os         1 0NL      -0.423900
      6 C6           2.8520     1.2220    -2.2210 c          1 0NL       0.632100
      7 O7           2.8040     0.0150    -2.4090 o          1 0NL      -0.432000
      8 N8           3.7860     2.0860    -3.0260 ny         1 0NL      -0.651800
      9 C9           3.2840     2.2570    -4.4420 c3         1 0NL       0.132500
     10 C11          4.3400     2.9240    -5.3410 c3         1 0NL      -0.106400
     11 C12          3.9360     4.3760    -5.5310 c3         1 0NL      -0.113400
     12 C13          2.5920     4.5910    -4.7950 c3         1 0NL       0.071000
     13 C15          2.0540     3.1670    -4.5040 c3         1 0NL      -0.137400
     14 N16          1.6620     5.4300    -5.4790 na         1 0NL      -0.177300
     15 C17          1.1440     5.2390    -6.7920 cc         1 0NL       0.385700
     16 N18          0.2260     6.1500    -7.1300 nd         1 0NL      -0.503100
     17 C19          0.1010     6.9940    -6.0100 ca         1 0NL      -0.080900
     18 C20          0.9980     6.5490    -4.9620 ca         1 0NL      -0.002200
     19 C21          1.0410     7.2540    -3.7560 ca         1 0NL      -0.204100
     20 C22          1.7450     7.1950    -2.5060 cc         1 0NL      -0.202200
     21 C23          1.2880     8.2590    -1.7260 cd         1 0NL      -0.095100
     22 N24          0.3230     8.9860    -2.4170 na         1 0NL      -0.261100
     23 C26          0.1440     8.4040    -3.6790 ca         1 0NL       0.435800
     24 N27         -0.7150     8.8330    -4.6660 nb         1 0NL      -0.665000
     25 C28         -0.7220     8.1370    -5.7950 ca         1 0NL       0.494200
     26 H1          -0.7290     0.3270    -0.6090 hc         1 0NL       0.073256
     27 H1A         -0.3360     1.4200    -2.0030 hc         1 0NL       0.073256
     28 H1B          0.4860    -0.1980    -1.8480 hc         1 0NL       0.073256
     29 H3           1.4960     3.0100     0.8960 hc         1 0NL       0.073256
     30 H3A          0.1970     3.2660    -0.3490 hc         1 0NL       0.073256
     31 H3B         -0.1050     2.1620     1.0660 hc         1 0NL       0.073256
     32 H4           2.7470     0.8140     0.9710 hc         1 0NL       0.073256
     33 H4A          1.1750    -0.0590     1.2100 hc         1 0NL       0.073256
     34 H4B          2.2740    -0.5400    -0.1510 hc         1 0NL       0.073256
     35 HN8          4.7060     1.6300    -3.0510 hn         1 0NL       0.468300
     36 H9           3.0410     1.2150    -4.8050 hx         1 0NL       0.123700
     37 H11          4.3360     2.3850    -6.3270 hc         1 0NL       0.085200
     38 H11A         5.3790     2.8420    -4.9340 hc         1 0NL       0.085200
     39 H12          4.7070     5.0700    -5.1110 hc         1 0NL       0.086700
     40 H12A         3.8480     4.6110    -6.6240 hc         1 0NL       0.086700
     41 H13          2.8080     5.0920    -3.8010 h1         1 0NL       0.075700
     42 H15          1.4420     3.1520    -3.5680 hc         1 0NL       0.097200
     43 H15A         1.3970     2.8070    -5.3410 hc         1 0NL       0.097200
     44 H17          1.4980     4.4270    -7.4360 h5         1 0NL       0.068800
     45 H22          2.5020     6.4760    -2.2150 ha         1 0NL       0.135000
     46 H23          1.5850     8.5550    -0.7170 h4         1 0NL       0.177000
     47 HN24        -0.1430     9.7970    -2.0960 hn         1 0NL       0.322700
     48 H28         -1.4090     8.4870    -6.5880 h4         1 0NL       0.053100
     49 H82          3.8720     3.0070    -2.5800 hn         1 0NL       0.468300
@<TRIPOS>BOND
     1     1     2 1   
     2     1    26 1   
     3     1    27 1   
     4     1    28 1   
     5     2     3 1   
     6     2     4 1   
     7     2     5 1   
     8     3    29 1   
     9     3    30 1   
    10     3    31 1   
    11     4    32 1   
    12     4    33 1   
    13     4    34 1   
    14     5     6 1   
    15     6     7 2   
    16     6     8 1   
    17     8     9 1   
    18     8    35 1   
    19     8    49 1   
    20     9    10 1   
    21     9    13 1   
    22     9    36 1   
    23    10    11 1   
    24    10    37 1   
    25    10    38 1   
    26    11    12 1   
    27    11    39 1   
    28    11    40 1   
    29    12    13 1   
    30    12    14 1   
    31    12    41 1   
    32    13    42 1   
    33    13    43 1   
    34    14    15 1   
    35    14    18 1   
    36    15    16 2   
    37    15    44 1   
    38    16    17 1   
    39    17    18 ar  
    40    17    25 ar  
    41    18    19 ar  
    42    19    20 1   
    43    19    23 ar  
    44    20    21 2   
    45    20    45 1   
    46    21    22 1   
    47    21    46 1   
    48    22    23 1   
    49    22    47 1   
    50    23    24 ar  
    51    24    25 ar  
    52    25    48 1   
@<TRIPOS>SUBSTRUCTURE
     1 0NL         1 TEMP              0 ****  ****    0 ROOT
