@<TRIPOS>MOLECULE
molecule
    4     3     1     0     0
SMALL
bcc


@<TRIPOS>ATOM
      1 N            2.4910     0.0000     0.0200 n1         1 0NM      -0.372800
      2 C            1.3560     0.0000     0.0000 c1         1 0NM       0.334400
      3 O            0.0000     0.0000     0.0000 oh         1 0NM      -0.404600
      4 H           -0.3140     0.0070    -0.8890 ho         1 0NM       0.444000
@<TRIPOS>BOND
     1     1     2 3   
     2     2     3 1   
     3     3     4 1   
@<TRIPOS>SUBSTRUCTURE
     1 0NM         1 TEMP              0 ****  ****    0 ROOT
