@<TRIPOS>MOLECULE
molecule
   67    71     1     0     0
SMALL
bcc


@<TRIPOS>ATOM
      1 C4           0.0000     0.0000     0.0000 ca         1 0NN      -0.123000
      2 C3           1.3820     0.0000     0.0000 ca         1 0NN      -0.125000
      3 C2           2.0750     0.0000     1.1960 ca         1 0NN      -0.099000
      4 C1           1.3850     0.0010     2.3910 ca         1 0NN      -0.114300
      5 O1           0.6920    -0.4150     4.6060 os         1 0NN      -0.397600
      6 N1           3.8560     0.4320     5.8340 n3         1 0NN      -0.735600
      7 C10          2.7370     1.3770     5.7060 c3         1 0NN       0.163800
      8 C11          2.9830    -0.9790     4.0320 c3         1 0NN      -0.073400
      9 C12          3.4400    -0.9340     5.4920 c3         1 0NN       0.163800
     10 C14          5.7400    -0.3170     7.2050 c3         1 0NN      -0.103400
     11 C15          6.3470    -0.2630     8.6090 c3         1 0NN       0.107000
     12 C16          8.3080    -1.1240     9.7710 c          1 0NN       0.643100
     13 C17          9.5920    -1.9130     9.7950 c3         1 0NN       0.090500
     14 C18         10.7890    -0.9620    10.0010 c3         1 0NN      -0.091400
     15 C19         11.7230    -1.7720    10.9380 c3         1 0NN      -0.090400
     16 N2           7.5950    -1.0300     8.6320 ns         1 0NN      -0.581900
     17 C20         10.6990    -2.5120    11.8350 c3         1 0NN       0.151800
     18 C22          8.1660    -4.0210    12.5240 ca         1 0NN      -0.076300
     19 C23          8.6230    -3.9800    13.8270 ca         1 0NN      -0.116500
     20 C24          8.5050    -5.0940    14.6370 ca         1 0NN      -0.130500
     21 C25          7.9280    -6.2490    14.1430 ca         1 0NN      -0.130000
     22 C26          7.4680    -6.2890    12.8400 ca         1 0NN      -0.130500
     23 C27          7.5820    -5.1730    12.0320 ca         1 0NN      -0.116500
     24 N3           9.5810    -2.8530    10.9300 n3         1 0NN      -0.693600
     25 C5          -0.6920     0.0020     1.1980 ca         1 0NN      -0.104000
     26 C6          -0.0020     0.0020     2.3920 ca         1 0NN      -0.130300
     27 C7          -0.4500     0.0020     3.8350 c3         1 0NN       0.173700
     28 C8           1.8290     0.0030     3.8320 c3         1 0NN       0.187100
     29 C9           2.2590     1.4070     4.2520 c3         1 0NN      -0.073400
     30 H1          -0.5410    -0.0000    -0.9380 ha         1 0NN       0.133000
     31 H2           1.9230    -0.0010    -0.9390 ha         1 0NN       0.133000
     32 H3           3.1580     0.0000     1.1960 ha         1 0NN       0.133000
     33 H5           3.0680     2.3670     5.9970 h1         1 0NN       0.041700
     34 H6           1.9230     1.0590     6.3460 h1         1 0NN       0.041700
     35 H7           2.6490    -1.9810     3.7900 hc         1 0NN       0.057700
     36 H8           3.8080    -0.7020     3.3870 hc         1 0NN       0.057700
     37 H9           4.2750    -1.6090     5.6290 h1         1 0NN       0.041700
     38 H10          2.6200    -1.2310     6.1350 h1         1 0NN       0.041700
     39 H11          4.6420     1.5140     7.4470 h1         1 0NN       0.038200
     40 H12          3.7390     0.0600     7.8920 h1         1 0NN       0.038200
     41 H13          6.4380     0.1070     6.4930 hc         1 0NN       0.053200
     42 H14          5.5350    -1.3470     6.9400 hc         1 0NN       0.053200
     43 H15          6.5520     0.7670     8.8750 h1         1 0NN       0.053700
     44 H16          5.6490    -0.6880     9.3210 h1         1 0NN       0.053700
     45 H17          9.7120    -2.4590     8.8680 h1         1 0NN       0.068700
     46 H18         11.2800    -0.7580     9.0570 hc         1 0NN       0.058200
     47 H19         10.4700    -0.0450    10.4810 hc         1 0NN       0.058200
     48 H20         12.3450    -1.1100    11.5280 hc         1 0NN       0.054200
     49 H21         12.3200    -2.4770    10.3730 hc         1 0NN       0.054200
     50 H22          7.9230    -1.4760     7.7990 hn         1 0NN       0.315500
     51 H23         10.3550    -1.8590    12.6290 h1         1 0NN       0.051200
     52 H24         11.1410    -3.4130    12.2440 h1         1 0NN       0.051200
     53 H25          8.2510    -1.9110    12.2500 h1         1 0NN       0.064200
     54 H26          7.4850    -2.7940    10.9220 h1         1 0NN       0.064200
     55 H27          9.0760    -3.0750    14.2150 ha         1 0NN       0.129500
     56 H28          8.8640    -5.0620    15.6580 ha         1 0NN       0.127000
     57 H29          7.8360    -7.1230    14.7770 ha         1 0NN       0.126000
     58 H30          7.0140    -7.1940    12.4540 ha         1 0NN       0.127000
     59 H31          7.2220    -5.2050    11.0100 ha         1 0NN       0.129500
     60 H33         -1.7750     0.0020     1.1980 ha         1 0NN       0.131000
     61 H34         -1.2380    -0.7310     3.9550 h1         1 0NN       0.062200
     62 H35         -0.7110     1.0150     4.1180 h1         1 0NN       0.062200
     63 H36          3.0670     1.7430     3.6140 hc         1 0NN       0.057700
     64 H37          1.4170     2.0830     4.1640 hc         1 0NN       0.057700
     65 C13          4.4370     0.4840     7.1810 c3         1 0NN       0.168800
     66 C21          8.2950    -2.8060    11.6410 c3         1 0NN       0.189100
     67 O2           7.9170    -0.5720    10.7780 o          1 0NN      -0.618100
@<TRIPOS>BOND
     1     1    25 ar  
     2     1     2 ar  
     3    25    26 ar  
     4     2     3 ar  
     5    26    27 1   
     6    26     4 ar  
     7    27     5 1   
     8     3     4 ar  
     9     4    28 1   
    10     5    28 1   
    11    28    29 1   
    12    28     8 1   
    13    29     7 1   
    14     8     9 1   
    15     7     6 1   
    16     9     6 1   
    17     6    65 1   
    18    21    20 ar  
    19    21    22 ar  
    20    20    19 ar  
    21    65    10 1   
    22    22    23 ar  
    23    10    11 1   
    24    19    18 ar  
    25    67    12 2   
    26    23    18 ar  
    27    18    66 1   
    28    11    16 1   
    29    12    16 1   
    30    12    13 1   
    31    66    24 1   
    32    13    24 1   
    33    13    14 1   
    34    24    17 1   
    35    14    15 1   
    36    17    15 1   
    37     1    30 1   
    38     2    31 1   
    39     3    32 1   
    40     7    33 1   
    41     7    34 1   
    42     8    35 1   
    43     8    36 1   
    44     9    37 1   
    45     9    38 1   
    46    65    39 1   
    47    65    40 1   
    48    10    41 1   
    49    10    42 1   
    50    11    43 1   
    51    11    44 1   
    52    13    45 1   
    53    14    46 1   
    54    14    47 1   
    55    15    48 1   
    56    15    49 1   
    57    16    50 1   
    58    17    51 1   
    59    17    52 1   
    60    66    53 1   
    61    66    54 1   
    62    19    55 1   
    63    20    56 1   
    64    21    57 1   
    65    22    58 1   
    66    23    59 1   
    67    25    60 1   
    68    27    61 1   
    69    27    62 1   
    70    29    63 1   
    71    29    64 1   
@<TRIPOS>SUBSTRUCTURE
     1 0NN         1 TEMP              0 ****  ****    0 ROOT
