@<TRIPOS>MOLECULE
0NN
   67    71     1     0     0
SMALL
bcc


@<TRIPOS>ATOM
      1 C4           0.0000     0.0000     0.0000 ca         1 0NN      -0.096000
      2 C3           1.3820     0.0000     0.0000 ca         1 0NN      -0.100000
      3 C2           2.0750     0.0000     1.1960 ca         1 0NN      -0.065000
      4 C1           1.3850     0.0010     2.3910 ca         1 0NN      -0.127300
      5 O1           0.6920    -0.4150     4.6060 os         1 0NN      -0.393600
      6 N1           3.8560     0.4320     5.8340 n3         1 0NN      -0.545600
      7 C10          2.7370     1.3770     5.7060 c3         1 0NN       0.151300
      8 C11          2.9830    -0.9790     4.0320 c3         1 0NN      -0.032900
      9 C12          3.4400    -0.9340     5.4920 c3         1 0NN       0.151300
     10 C14          5.7400    -0.3170     7.2050 c3         1 0NN      -0.052400
     11 C15          6.3470    -0.2630     8.6090 c3         1 0NN       0.047000
     12 C16          8.3080    -1.1240     9.7710 c          1 0NN       0.559100
     13 C17          9.5920    -1.9130     9.7950 c3         1 0NN       0.062500
     14 C18         10.7890    -0.9620    10.0010 c3         1 0NN      -0.032400
     15 C19         11.7230    -1.7720    10.9380 c3         1 0NN      -0.029400
     16 N2           7.5950    -1.0300     8.6320 ns         1 0NN      -0.188900
     17 C20         10.6990    -2.5120    11.8350 c3         1 0NN       0.147800
     18 C22          8.1660    -4.0210    12.5240 ca         1 0NN      -0.082300
     19 C23          8.6230    -3.9800    13.8270 ca         1 0NN      -0.092500
     20 C24          8.5050    -5.0940    14.6370 ca         1 0NN      -0.103000
     21 C25          7.9280    -6.2490    14.1430 ca         1 0NN      -0.105000
     22 C26          7.4680    -6.2890    12.8400 ca         1 0NN      -0.103000
     23 C27          7.5820    -5.1730    12.0320 ca         1 0NN      -0.092500
     24 N3           9.5810    -2.8530    10.9300 n3         1 0NN      -0.523600
     25 C5          -0.6920     0.0020     1.1980 ca         1 0NN      -0.071000
     26 C6          -0.0020     0.0020     2.3920 ca         1 0NN      -0.142300
     27 C7          -0.4500     0.0020     3.8350 c3         1 0NN       0.270700
     28 C8           1.8290     0.0030     3.8320 c3         1 0NN       0.218100
     29 C9           2.2590     1.4070     4.2520 c3         1 0NN      -0.032900
     30 H1          -0.5410    -0.0000    -0.9380 ha         1 0NN       0.105000
     31 H2           1.9230    -0.0010    -0.9390 ha         1 0NN       0.105000
     32 H3           3.1580     0.0000     1.1960 ha         1 0NN       0.106000
     33 H5           3.0680     2.3670     5.9970 h1         1 0NN       0.016450
     34 H6           1.9230     1.0590     6.3460 h1         1 0NN       0.016450
     35 H7           2.6490    -1.9810     3.7900 hc         1 0NN       0.029450
     36 H8           3.8080    -0.7020     3.3870 hc         1 0NN       0.029450
     37 H9           4.2750    -1.6090     5.6290 h1         1 0NN       0.016450
     38 H10          2.6200    -1.2310     6.1350 h1         1 0NN       0.016450
     39 H11          4.6420     1.5140     7.4470 h1         1 0NN       0.012700
     40 H12          3.7390     0.0600     7.8920 h1         1 0NN       0.012700
     41 H13          6.4380     0.1070     6.4930 hc         1 0NN       0.026200
     42 H14          5.5350    -1.3470     6.9400 hc         1 0NN       0.026200
     43 H15          6.5520     0.7670     8.8750 h1         1 0NN       0.027700
     44 H16          5.6490    -0.6880     9.3210 h1         1 0NN       0.027700
     45 H17          9.7120    -2.4590     8.8680 h1         1 0NN       0.035700
     46 H18         11.2800    -0.7580     9.0570 hc         1 0NN       0.027700
     47 H19         10.4700    -0.0450    10.4810 hc         1 0NN       0.027700
     48 H20         12.3450    -1.1100    11.5280 hc         1 0NN       0.022200
     49 H21         12.3200    -2.4770    10.3730 hc         1 0NN       0.022200
     50 H22          7.9230    -1.4760     7.7990 hn         1 0NN       0.177500
     51 H23         10.3550    -1.8590    12.6290 h1         1 0NN       0.022200
     52 H24         11.1410    -3.4130    12.2440 h1         1 0NN       0.022200
     53 H25          8.2510    -1.9110    12.2500 h1         1 0NN       0.042200
     54 H26          7.4850    -2.7940    10.9220 h1         1 0NN       0.042200
     55 H27          9.0760    -3.0750    14.2150 ha         1 0NN       0.104500
     56 H28          8.8640    -5.0620    15.6580 ha         1 0NN       0.100000
     57 H29          7.8360    -7.1230    14.7770 ha         1 0NN       0.100000
     58 H30          7.0140    -7.1940    12.4540 ha         1 0NN       0.100000
     59 H31          7.2220    -5.2050    11.0100 ha         1 0NN       0.104500
     60 H33         -1.7750     0.0020     1.1980 ha         1 0NN       0.103000
     61 H34         -1.2380    -0.7310     3.9550 h1         1 0NN       0.018700
     62 H35         -0.7110     1.0150     4.1180 h1         1 0NN       0.018700
     63 H36          3.0670     1.7430     3.6140 hc         1 0NN       0.029450
     64 H37          1.4170     2.0830     4.1640 hc         1 0NN       0.029450
     65 C13          4.4370     0.4840     7.1810 c3         1 0NN       0.161800
     66 C21          8.2950    -2.8060    11.6410 c3         1 0NN       0.173100
     67 O2           7.9170    -0.5720    10.7780 o          1 0NN      -0.654100
@<TRIPOS>BOND
     1     1     2 ar  
     2     1    25 ar  
     3     1    30 1   
     4     2     3 ar  
     5     2    31 1   
     6     3     4 ar  
     7     3    32 1   
     8     4    26 ar  
     9     4    28 1   
    10     5    27 1   
    11     5    28 1   
    12     6     7 1   
    13     6     9 1   
    14     6    65 1   
    15     7    29 1   
    16     7    33 1   
    17     7    34 1   
    18     8     9 1   
    19     8    28 1   
    20     8    35 1   
    21     8    36 1   
    22     9    37 1   
    23     9    38 1   
    24    10    11 1   
    25    10    41 1   
    26    10    42 1   
    27    10    65 1   
    28    11    16 1   
    29    11    43 1   
    30    11    44 1   
    31    12    13 1   
    32    12    16 1   
    33    12    67 2   
    34    13    14 1   
    35    13    24 1   
    36    13    45 1   
    37    14    15 1   
    38    14    46 1   
    39    14    47 1   
    40    15    17 1   
    41    15    48 1   
    42    15    49 1   
    43    16    50 1   
    44    17    24 1   
    45    17    51 1   
    46    17    52 1   
    47    18    19 ar  
    48    18    23 ar  
    49    18    66 1   
    50    19    20 ar  
    51    19    55 1   
    52    20    21 ar  
    53    20    56 1   
    54    21    22 ar  
    55    21    57 1   
    56    22    23 ar  
    57    22    58 1   
    58    23    59 1   
    59    24    66 1   
    60    25    26 ar  
    61    25    60 1   
    62    26    27 1   
    63    27    61 1   
    64    27    62 1   
    65    28    29 1   
    66    29    63 1   
    67    29    64 1   
    68    39    65 1   
    69    40    65 1   
    70    53    66 1   
    71    54    66 1   
@<TRIPOS>SUBSTRUCTURE
     1 0NN         1 TEMP              0 ****  ****    0 ROOT
