@<TRIPOS>MOLECULE
0NN
   68    72     1     0     0
SMALL
bcc


@<TRIPOS>ATOM
      1 C4          -0.1500    -1.7220     0.0020 ca         1 0NN      -0.117000
      2 C3           1.1930    -1.9980     0.2390 ca         1 0NN      -0.126000
      3 C2           1.8160    -1.5770     1.4240 ca         1 0NN      -0.102000
      4 C1           1.0620    -0.8810     2.3520 ca         1 0NN      -0.120300
      5 O1           0.2370     0.3110     4.2100 os         1 0NN      -0.432600
      6 N1           3.3000     0.2560     5.8940 n3         1 0NN      -0.738600
      7 C10          2.9100     1.2990     4.9520 c3         1 0NN       0.172800
      8 C11          1.8870    -1.3970     4.6740 c3         1 0NN      -0.074900
      9 C12          2.2960    -0.7980     6.0160 c3         1 0NN       0.172800
     10 C14          5.1510     1.2580     7.1920 c3         1 0NN      -0.113400
     11 C15          5.5050     1.7090     8.6020 c3         1 0NN       0.101800
     12 C16          7.3250     2.5790    10.1020 c          1 0NN       0.541100
     13 C17          8.7130     3.2100    10.2660 c3         1 0NN       0.113500
     14 C18          9.3790     2.6310    11.5370 c3         1 0NN      -0.088400
     15 C19         10.6260     1.9030    11.0570 c3         1 0NN      -0.101400
     16 N2           6.9210     2.1650     8.7090 ny         1 0NN      -0.668800
     17 C20         10.7560     2.2130     9.5590 c3         1 0NN       0.157800
     18 C22          8.7110     4.8110     7.7090 ca         1 0NN      -0.132300
     19 C23          8.1820     4.2880     6.5220 ca         1 0NN      -0.146000
     20 C24          7.1090     4.9220     5.8960 ca         1 0NN      -0.122500
     21 C25          6.5590     6.0790     6.4500 ca         1 0NN      -0.112000
     22 C26          7.0870     6.6040     7.6300 ca         1 0NN      -0.122500
     23 C27          8.1590     5.9720     8.2600 ca         1 0NN      -0.146000
     24 N3           9.5810     2.9720     9.1140 n3         1 0NN      -0.767600
     25 C5          -0.9170    -1.0170     0.9420 ca         1 0NN      -0.103000
     26 C6          -0.3050    -0.6020     2.1100 ca         1 0NN      -0.114300
     27 C7          -0.8530     0.1520     3.2770 c3         1 0NN       0.172700
     28 C8           1.4450    -0.3130     3.6930 c3         1 0NN       0.201100
     29 C9           2.5260     0.7590     3.5780 c3         1 0NN      -0.074900
     30 C21          9.9100     4.1670     8.3420 c3         1 0NN       0.201100
     31 O2           6.5060     2.4140    10.9910 o          1 0NN      -0.425100
     32 C13          3.6860     0.7970     7.1860 c3         1 0NN       0.183800
     33 H1          -0.6220    -2.0600    -0.9330 ha         1 0NN       0.142000
     34 H2           1.7790    -2.5530    -0.5090 ha         1 0NN       0.140000
     35 H3           2.8770    -1.7990     1.6070 ha         1 0NN       0.136000
     36 H5           2.0370     1.9010     5.3450 h1         1 0NN       0.037950
     37 H6           3.7870     1.9960     4.8330 h1         1 0NN       0.037950
     38 H7           2.7390    -1.9620     4.2170 hc         1 0NN       0.062950
     39 H8           1.0420    -2.1110     4.8540 hc         1 0NN       0.062950
     40 H9           1.3640    -0.4150     6.5270 h1         1 0NN       0.037950
     41 H10          2.7360    -1.6170     6.6520 h1         1 0NN       0.037950
     42 H11          3.0400     1.6710     7.4950 h1         1 0NN       0.042700
     43 H12          3.5690    -0.0020     7.9740 h1         1 0NN       0.042700
     44 H13          5.8120     0.4110     6.8690 hc         1 0NN       0.069700
     45 H14          5.2880     2.1000     6.4640 hc         1 0NN       0.069700
     46 H15          4.8440     2.5650     8.9220 hx         1 0NN       0.108200
     47 H16          5.3580     0.8640     9.3350 hx         1 0NN       0.108200
     48 H17          8.4900     4.3130    10.4060 h1         1 0NN       0.109700
     49 H18          8.6900     1.9500    12.0940 hc         1 0NN       0.083200
     50 H19          9.6450     3.4750    12.2230 hc         1 0NN       0.083200
     51 H20         10.5360     0.8010    11.2210 hc         1 0NN       0.075200
     52 H21         11.5330     2.2530    11.6110 hc         1 0NN       0.075200
     53 H22          7.0820     2.9650     8.0720 hn         1 0NN       0.470800
     54 H23         10.7820     1.2640     8.9560 h1         1 0NN       0.067700
     55 H24         11.7120     2.7730     9.3600 h1         1 0NN       0.067700
     56 H25         10.4500     4.9330     8.9730 h1         1 0NN       0.071200
     57 H26         10.6180     3.8380     7.5260 h1         1 0NN       0.071200
     58 H27          8.6480     3.4050     6.0570 ha         1 0NN       0.143500
     59 H28          6.7110     4.5220     4.9500 ha         1 0NN       0.153500
     60 H29          5.7220     6.5880     5.9460 ha         1 0NN       0.156000
     61 H30          6.6670     7.5280     8.0580 ha         1 0NN       0.153500
     62 H31          8.5890     6.4080     9.1760 ha         1 0NN       0.143500
     63 H33         -1.9780    -0.8040     0.7480 ha         1 0NN       0.144000
     64 H34         -1.2030     1.1800     3.0030 h1         1 0NN       0.064200
     65 H35         -1.6640    -0.4060     3.8110 h1         1 0NN       0.064200
     66 H36          2.1490     1.6120     2.9580 hc         1 0NN       0.062950
     67 H37          3.4160     0.3120     3.0650 hc         1 0NN       0.062950
     68 H231         7.5480     1.4070     8.4080 hn         1 0NN       0.470800
@<TRIPOS>BOND
     1     1     2 ar  
     2     1    25 ar  
     3     1    33 1   
     4     2     3 ar  
     5     2    34 1   
     6     3     4 ar  
     7     3    35 1   
     8     4    26 ar  
     9     4    28 1   
    10     5    27 1   
    11     5    28 1   
    12     6     7 1   
    13     6     9 1   
    14     6    32 1   
    15     7    29 1   
    16     7    36 1   
    17     7    37 1   
    18     8     9 1   
    19     8    28 1   
    20     8    38 1   
    21     8    39 1   
    22     9    40 1   
    23     9    41 1   
    24    10    11 1   
    25    10    32 1   
    26    10    44 1   
    27    10    45 1   
    28    11    16 1   
    29    11    46 1   
    30    11    47 1   
    31    12    13 1   
    32    12    16 1   
    33    12    31 2   
    34    13    14 1   
    35    13    24 1   
    36    13    48 1   
    37    14    15 1   
    38    14    49 1   
    39    14    50 1   
    40    15    17 1   
    41    15    51 1   
    42    15    52 1   
    43    16    53 1   
    44    16    68 1   
    45    17    24 1   
    46    17    54 1   
    47    17    55 1   
    48    18    19 ar  
    49    18    23 ar  
    50    18    30 1   
    51    19    20 ar  
    52    19    58 1   
    53    20    21 ar  
    54    20    59 1   
    55    21    22 ar  
    56    21    60 1   
    57    22    23 ar  
    58    22    61 1   
    59    23    62 1   
    60    24    30 1   
    61    25    26 ar  
    62    25    63 1   
    63    26    27 1   
    64    27    64 1   
    65    27    65 1   
    66    28    29 1   
    67    29    66 1   
    68    29    67 1   
    69    30    56 1   
    70    30    57 1   
    71    32    42 1   
    72    32    43 1   
@<TRIPOS>SUBSTRUCTURE
     1 0NN         1 TEMP              0 ****  ****    0 ROOT
