@<TRIPOS>MOLECULE
molecule
   30    31     1     0     0
SMALL
bcc


@<TRIPOS>ATOM
      1 C2           0.0000     0.0000     0.0000 c          1 0NP       0.819500
      2 O2          -0.6000     0.0050    -1.0580 o          1 0NP      -0.674500
      3 C6           2.0420     0.0000     1.1760 cc         1 0NP       0.007600
      4 N19          2.5770    -3.6860    -4.7270 n2         1 0NP      -0.407400
      5 N18          2.6380    -2.5800    -4.5300 n1         1 0NP       0.469000
      6 C3'          1.6930    -0.7940    -3.5460 c3         1 0NP       0.146500
      7 C4'          1.9970     0.7180    -3.4530 c3         1 0NP       0.152100
      8 C5'          1.1610     1.4930    -4.4730 c3         1 0NP       0.149400
      9 O5'          1.4880     2.8820    -4.4010 oh         1 0NP      -0.580800
     10 O4'          1.6200     1.0890    -2.1090 os         1 0NP      -0.328600
     11 C2'          1.7420    -1.2770    -2.0790 c3         1 0NP       0.082600
     12 F2'          2.7480    -2.2340    -1.9120 f          1 0NP      -0.230300
     13 C1'          2.0700     0.0000    -1.2740 c3         1 0NP       0.311500
     14 N1           1.3450     0.0000     0.0000 n          1 0NP      -0.370000
     15 N3          -0.6920    -0.0000     1.1550 ns         1 0NP      -0.551500
     16 C5           1.3750    -0.0100     2.3500 cd         1 0NP      -0.267200
     17 C4          -0.0420    -0.0050     2.3360 c          1 0NP       0.691700
     18 O4          -0.6660    -0.0040     3.3820 o          1 0NP      -0.569500
     19 H1           3.1260    -0.0020     1.1670 h4         1 0NP       0.174000
     20 H2           1.8170    -4.2190    -4.3540 hn         1 0NP       0.642400
     21 H3           0.7070    -0.9550    -3.9630 h1         1 0NP       0.132700
     22 H4           3.0540     0.8990    -3.6090 h1         1 0NP       0.103700
     23 H5           1.3730     1.1240    -5.4690 h1         1 0NP       0.044700
     24 H6           0.1080     1.3580    -4.2550 h1         1 0NP       0.044700
     25 H7           1.0260     3.3500    -5.0770 ho         1 0NP       0.432000
     26 H8           0.7790    -1.6740    -1.7810 h1         1 0NP       0.137700
     27 H9           3.1380     0.0730    -1.1070 h2         1 0NP       0.107700
     28 H10         -1.6930     0.0040     1.1370 hn         1 0NP       0.377500
     29 H11          1.9150    -0.0120     3.2890 ha         1 0NP       0.198000
     30 N3'          2.7150    -1.4750    -4.3450 n2         1 0NP      -0.244200
@<TRIPOS>BOND
     1     8     7 1
     2     8     9 1
     3     7    10 1
     4     7     6 1
     5    10    13 1
     6    30     6 1
     7    30     5 2
     8     6    11 1
     9    13    14 1
    10    13    11 1
    11     5     4 2
    12    14     3 1
    13    14     1 1
    14     2     1 2
    15     3    16 2
    16    11    12 1
    17     1    15 1
    18    16    17 1
    19    15    17 1
    20    17    18 2
    21     3    19 1
    22     4    20 1
    23     6    21 1
    24     7    22 1
    25     8    23 1
    26     8    24 1
    27     9    25 1
    28    11    26 1
    29    13    27 1
    30    15    28 1
    31    16    29 1
@<TRIPOS>SUBSTRUCTURE
     1 0NP         1 TEMP              0 ****  ****    0 ROOT
