@<TRIPOS>MOLECULE
0NP
   30    31     1     0     0
SMALL
bcc


@<TRIPOS>ATOM
      1 C2           0.1760     0.4960    -0.0860 c          1 0NP       0.821500
      2 O2          -0.3310     0.9720    -1.1250 o          1 0NP      -0.637500
      3 C6           2.1360    -0.3700     1.0940 cc         1 0NP       0.016600
      4 N19          3.6420     2.4290    -4.9070 n2         1 0NP      -0.173400
      5 N18          4.0850     1.5990    -4.1660 n1         1 0NP       0.201000
      6 C3'          4.6470     0.5840    -2.0550 c3         1 0NP       0.043500
      7 C4'          4.2430    -0.9130    -1.9280 c3         1 0NP       0.143100
      8 C5'          5.0000    -1.5950    -0.7830 c3         1 0NP       0.104400
      9 O5'          5.2750    -0.6250     0.2140 oh         1 0NP      -0.641800
     10 O4'          2.8330    -0.9380    -1.7290 os         1 0NP      -0.403600
     11 C2'          3.5620     1.3040    -1.1920 c3         1 0NP       0.120600
     12 F2'          3.2460     2.5650    -1.6320 f          1 0NP      -0.201300
     13 C1'          2.3210     0.3350    -1.2740 c3         1 0NP       0.278500
     14 N1           1.5860     0.2210    -0.0450 n          1 0NP      -0.392000
     15 N3          -0.5800     0.2500     1.0570 ns         1 0NP      -0.574500
     16 C5           1.4010    -0.6140     2.2030 cd         1 0NP      -0.267200
     17 C4          -0.0380    -0.3030     2.2380 c          1 0NP       0.708700
     18 O4          -0.7830    -0.4940     3.2070 o          1 0NP      -0.556500
     19 H1           3.2160    -0.6090     1.0270 h4         1 0NP       0.171000
     20 H2           3.0000     2.1340    -5.6510 hn         1 0NP       0.532400
     21 H3           5.6860     0.7580    -1.6220 h1         1 0NP       0.187700
     22 H4           4.4120    -1.5150    -2.8660 h1         1 0NP       0.115700
     23 H5           4.3580    -2.4170    -0.3630 h1         1 0NP       0.076200
     24 H6           5.9610    -2.0230    -1.1790 h1         1 0NP       0.076200
     25 H7           5.7950    -1.0600     0.9030 ho         1 0NP       0.446000
     26 H8           3.9700     1.3610    -0.1370 h1         1 0NP       0.146700
     27 H9           1.6070     0.6830    -2.0860 h2         1 0NP       0.133700
     28 H10         -1.5550     0.4730     1.0140 hn         1 0NP       0.368500
     29 H11          1.8290    -1.0470     3.1180 ha         1 0NP       0.192000
     30 N3'          4.8340     0.9920    -3.4470 n2         1 0NP      -0.036200
@<TRIPOS>BOND
     1     1     2 2   
     2     1    14 1   
     3     1    15 1   
     4     3    14 1   
     5     3    16 2   
     6     3    19 1   
     7     4     5 2   
     8     4    20 1   
     9     5    30 2   
    10     6     7 1   
    11     6    11 1   
    12     6    21 1   
    13     6    30 1   
    14     7     8 1   
    15     7    10 1   
    16     7    22 1   
    17     8     9 1   
    18     8    23 1   
    19     8    24 1   
    20     9    25 1   
    21    10    13 1   
    22    11    12 1   
    23    11    13 1   
    24    11    26 1   
    25    13    14 1   
    26    13    27 1   
    27    15    17 1   
    28    15    28 1   
    29    16    17 1   
    30    16    29 1   
    31    17    18 2   
@<TRIPOS>SUBSTRUCTURE
     1 0NP         1 TEMP              0 ****  ****    0 ROOT
