@<TRIPOS>MOLECULE
0NP
   30    31     1     0     0
SMALL
bcc


@<TRIPOS>ATOM
      1 C2           0.0000     0.0000     0.0000 c          1 0NP       0.600500
      2 O2          -0.6000     0.0050    -1.0580 o          1 0NP      -0.725500
      3 C6           2.0420     0.0000     1.1760 cc         1 0NP      -0.118400
      4 N19          2.5440    -3.6870    -4.7060 n2         1 0NP      -0.399400
      5 N18          2.6380    -2.5800    -4.5300 n1         1 0NP       0.842000
      6 C3'          1.6930    -0.7940    -3.5460 c3         1 0NP       0.136500
      7 C4'          1.9970     0.7180    -3.4530 c3         1 0NP       0.180100
      8 C5'          1.1610     1.4930    -4.4730 c3         1 0NP       0.226400
      9 O5'          1.4880     2.8820    -4.4010 oh         1 0NP      -0.566800
     10 O4'          1.6200     1.0890    -2.1090 os         1 0NP      -0.321600
     11 C2'          1.7420    -1.2770    -2.0790 c3         1 0NP       0.071600
     12 F2'          2.7480    -2.2340    -1.9120 f          1 0NP      -0.221300
     13 C1'          2.0700     0.0000    -1.2740 c3         1 0NP       0.228500
     14 N1           1.3450     0.0000     0.0000 n          1 0NP       0.031000
     15 N3          -0.6920    -0.0000     1.1550 ns         1 0NP      -0.115500
     16 C5           1.3750    -0.0100     2.3500 cd         1 0NP      -0.231200
     17 C4          -0.0420    -0.0050     2.3360 c          1 0NP       0.595700
     18 O4          -0.6660    -0.0040     3.3820 o          1 0NP      -0.604500
     19 H1           3.1260    -0.0020     1.1670 h4         1 0NP       0.141000
     20 H2           1.7720    -4.1920    -4.3190 hn         1 0NP       0.497400
     21 H3           0.7070    -0.9550    -3.9630 h1         1 0NP       0.082700
     22 H4           3.0540     0.8990    -3.6090 h1         1 0NP       0.057700
     23 H5           0.1080     1.3580    -4.2550 h1         1 0NP       0.001200
     24 H6           1.3730     1.1240    -5.4690 h1         1 0NP       0.001200
     25 H7           1.0260     3.3500    -5.0770 ho         1 0NP       0.413000
     26 H8           0.7790    -1.6740    -1.7810 h1         1 0NP       0.100700
     27 H9           3.1380     0.0730    -1.1070 h2         1 0NP       0.061700
     28 H10         -1.6930     0.0040     1.1370 hn         1 0NP       0.217500
     29 H11          1.9150    -0.0120     3.2890 ha         1 0NP       0.161000
     30 N3'          2.7150    -1.4750    -4.3450 n2         1 0NP      -0.340200
@<TRIPOS>BOND
     1     1     2 2   
     2     1    14 1   
     3     1    15 1   
     4     3    14 1   
     5     3    16 2   
     6     3    19 1   
     7     4     5 2   
     8     4    20 1   
     9     5    30 2   
    10     6     7 1   
    11     6    11 1   
    12     6    21 1   
    13     6    30 1   
    14     7     8 1   
    15     7    10 1   
    16     7    22 1   
    17     8     9 1   
    18     8    23 1   
    19     8    24 1   
    20     9    25 1   
    21    10    13 1   
    22    11    12 1   
    23    11    13 1   
    24    11    26 1   
    25    13    14 1   
    26    13    27 1   
    27    15    17 1   
    28    15    28 1   
    29    16    17 1   
    30    16    29 1   
    31    17    18 2   
@<TRIPOS>SUBSTRUCTURE
     1 0NP         1 TEMP              0 ****  ****    0 ROOT
