@<TRIPOS>MOLECULE
0NQ
   73    75     1     0     0
SMALL
bcc


@<TRIPOS>ATOM
      1 O26         -0.2650    -0.3110     0.1770 o          1 0NQ      -0.632500
      2 C24          0.9710    -0.2570     0.0830 c          1 0NQ       0.717700
      3 N23          1.8430    -0.0950     1.1940 n          1 0NQ      -0.440800
      4 C31          1.4090     0.7060     2.3140 c3         1 0NQ       0.076000
      5 C32          1.3220     2.2130     2.0670 c3         1 0NQ      -0.105400
      6 C33          0.9700     3.0040     3.3260 c3         1 0NQ      -0.050000
      7 C36         -0.2740     2.4400     3.9950 c3         1 0NQ      -0.089433
      8 C35          0.6960     4.4470     2.9110 c3         1 0NQ      -0.089433
      9 C34          2.1290     2.9920     4.3110 c3         1 0NQ      -0.089433
     10 C22          3.2390    -0.0080     0.7280 c3         1 0NQ       0.107900
     11 C27          4.2000    -1.0580     1.3490 c3         1 0NQ      -0.037000
     12 C30          3.9170    -2.4450     0.7970 c3         1 0NQ      -0.094767
     13 C29          4.0630    -1.0880     2.8650 c3         1 0NQ      -0.094767
     14 C28          5.6320    -0.6550     1.0120 c3         1 0NQ      -0.094767
     15 C21          3.1140    -0.1870    -0.7980 c2         1 0NQ       0.247900
     16 O25          4.2240    -0.1160    -1.5330 oh         1 0NQ      -0.450100
     17 C1           1.7950    -0.3680    -1.1520 ce         1 0NQ      -0.451800
     18 C2           1.2860    -0.6020    -2.5030 ce         1 0NQ       0.906500
     19 N5           2.0900    -0.7050    -3.5140 nf         1 0NQ      -1.108900
     20 P4           1.7490    -0.9170    -5.0500 py         1 0NQ       1.752400
     21 O6           2.3530     0.0000    -6.0130 o          1 0NQ      -0.819300
     22 O7           2.2530    -2.4150    -5.4580 os         1 0NQ      -0.572200
     23 C19          1.8080    -3.5290    -4.7350 c3         1 0NQ       0.188400
     24 C20          1.2680    -4.5760    -5.6870 c3         1 0NQ      -0.109100
     25 C8           0.1030    -0.9910    -5.0690 ca         1 0NQ      -0.474500
     26 C13         -0.5020    -1.1140    -6.3180 ca         1 0NQ      -0.036000
     27 C12         -1.9010    -1.1690    -6.4480 ca         1 0NQ       0.097600
     28 N14         -2.5290    -1.3100    -7.6970 nu         1 0NQ      -0.785500
     29 S15         -2.0680    -2.2700    -8.9300 s6         1 0NQ       1.469900
     30 C18         -2.3300    -3.8370    -8.3230 c3         1 0NQ      -0.369300
     31 O17         -0.6980    -2.1420    -9.2030 o          1 0NQ      -0.644800
     32 O16         -2.9680    -2.0490    -9.9920 o          1 0NQ      -0.644800
     33 C11         -2.6850    -1.0550    -5.2730 ca         1 0NQ      -0.076000
     34 C10         -2.0970    -0.9060    -4.0310 ca         1 0NQ      -0.177000
     35 C9          -0.6860    -0.8720    -3.9080 ca         1 0NQ       0.223600
     36 N3          -0.1080    -0.7150    -2.6430 nu         1 0NQ      -0.753600
     37 H1           0.3840     0.3240     2.5950 h1         1 0NQ       0.073700
     38 H2           2.1120     0.5080     3.1710 h1         1 0NQ       0.073700
     39 H3           2.2970     2.5980     1.6690 hc         1 0NQ       0.046700
     40 H4           0.5380     2.4070     1.2870 hc         1 0NQ       0.046700
     41 H5          -0.6220     3.1310     4.8010 hc         1 0NQ       0.037033
     42 H6          -1.0950     2.3190     3.2490 hc         1 0NQ       0.037033
     43 H7          -0.0570     1.4460     4.4560 hc         1 0NQ       0.037033
     44 H8           0.4800     5.0720     3.8100 hc         1 0NQ       0.037033
     45 H9          -0.1840     4.4930     2.2260 hc         1 0NQ       0.037033
     46 H10          1.5830     4.8740     2.3850 hc         1 0NQ       0.037033
     47 H11          1.8860     3.6310     5.1940 hc         1 0NQ       0.037033
     48 H12          2.3320     1.9560     4.6750 hc         1 0NQ       0.037033
     49 H13          3.0540     3.3900     3.8290 hc         1 0NQ       0.037033
     50 H14          3.6620     1.0180     0.9410 h1         1 0NQ       0.086700
     51 H15          2.8630    -2.7470     1.0080 hc         1 0NQ       0.044700
     52 H16          4.6010    -3.1890     1.2730 hc         1 0NQ       0.044700
     53 H17          4.0860    -2.4680    -0.3080 hc         1 0NQ       0.044700
     54 H18          4.1840    -0.0630     3.2890 hc         1 0NQ       0.044700
     55 H19          4.8590    -1.7430     3.2970 hc         1 0NQ       0.044700
     56 H20          3.0720    -1.5010     3.1710 hc         1 0NQ       0.044700
     57 H21          5.7970    -0.6370    -0.0910 hc         1 0NQ       0.044700
     58 H22          5.8620     0.3550     1.4280 hc         1 0NQ       0.044700
     59 H23          6.3410    -1.3930     1.4600 hc         1 0NQ       0.044700
     60 H24          4.0120    -0.2470    -2.4820 ho         1 0NQ       0.492000
     61 H25          1.0120    -3.2190    -4.0020 h1         1 0NQ       0.019200
     62 H26          2.6840    -3.9550    -4.1670 h1         1 0NQ       0.019200
     63 H27          2.0310    -4.8080    -6.4690 hc         1 0NQ       0.042367
     64 H28          0.3470    -4.2080    -6.1990 hc         1 0NQ       0.042367
     65 H29          1.0240    -5.5070    -5.1220 hc         1 0NQ       0.042367
     66 H30          0.1630    -1.1630    -7.2070 ha         1 0NQ       0.197000
     67 H31         -3.3520    -0.7550    -7.7840 hn         1 0NQ       0.458800
     68 H32         -1.7060    -4.0790    -7.4280 h1         1 0NQ       0.116367
     69 H33         -2.0650    -4.6000    -9.0990 h1         1 0NQ       0.116367
     70 H34         -3.3920    -4.0380    -8.0420 h1         1 0NQ       0.116367
     71 H35         -3.7860    -1.0730    -5.3420 ha         1 0NQ       0.140000
     72 H36         -2.7360    -0.8120    -3.1380 ha         1 0NQ       0.148000
     73 H37         -0.7040    -0.6130    -1.8460 hn         1 0NQ       0.490800
@<TRIPOS>BOND
     1     1     2 2   
     2     2     3 1   
     3     2    17 1   
     4     3     4 1   
     5     3    10 1   
     6     4     5 1   
     7     4    37 1   
     8     4    38 1   
     9     5     6 1   
    10     5    39 1   
    11     5    40 1   
    12     6     7 1   
    13     6     8 1   
    14     6     9 1   
    15     7    41 1   
    16     7    42 1   
    17     7    43 1   
    18     8    44 1   
    19     8    45 1   
    20     8    46 1   
    21     9    47 1   
    22     9    48 1   
    23     9    49 1   
    24    10    11 1   
    25    10    15 1   
    26    10    50 1   
    27    11    12 1   
    28    11    13 1   
    29    11    14 1   
    30    12    51 1   
    31    12    52 1   
    32    12    53 1   
    33    13    54 1   
    34    13    55 1   
    35    13    56 1   
    36    14    57 1   
    37    14    58 1   
    38    14    59 1   
    39    15    16 1   
    40    15    17 2   
    41    16    60 1   
    42    17    18 1   
    43    18    19 2   
    44    18    36 1   
    45    19    20 1   
    46    20    21 2   
    47    20    22 1   
    48    20    25 1   
    49    22    23 1   
    50    23    24 1   
    51    23    61 1   
    52    23    62 1   
    53    24    63 1   
    54    24    64 1   
    55    24    65 1   
    56    25    26 ar  
    57    25    35 ar  
    58    26    27 ar  
    59    26    66 1   
    60    27    28 1   
    61    27    33 ar  
    62    28    29 1   
    63    28    67 1   
    64    29    30 1   
    65    29    31 2   
    66    29    32 2   
    67    30    68 1   
    68    30    69 1   
    69    30    70 1   
    70    33    34 ar  
    71    33    71 1   
    72    34    35 ar  
    73    34    72 1   
    74    35    36 1   
    75    36    73 1   
@<TRIPOS>SUBSTRUCTURE
     1 0NQ         1 TEMP              0 ****  ****    0 ROOT
