@<TRIPOS>MOLECULE
molecule
   73    75     1     0     0
SMALL
bcc


@<TRIPOS>ATOM
      1 O26          0.0000     0.0000     0.0000 o          1 0NQ      -0.653500
      2 C24          1.2160     0.0000     0.0000 c          1 0NQ       0.715700
      3 N23          1.9850     0.0000     1.1040 n          1 0NQ      -0.476800
      4 C31          1.5050     0.0010     2.4890 c3         1 0NQ       0.104000
      5 C32          1.1640     1.4310     2.9100 c3         1 0NQ      -0.094400
      6 C33          0.7460     1.4430     4.3820 c3         1 0NQ      -0.070000
      7 C36          1.8960     0.9180     5.2430 c3         1 0NQ      -0.084433
      8 C35          0.4060     2.8740     4.8040 c3         1 0NQ      -0.084433
      9 C34         -0.4820     0.5500     4.5700 c3         1 0NQ      -0.084433
     10 C22          3.3900    -0.0010     0.6790 c3         1 0NQ       0.100900
     11 C27          4.0960    -1.2560     1.1950 c3         1 0NQ      -0.068000
     12 C30          3.9700    -1.3220     2.7170 c3         1 0NQ      -0.090100
     13 C29          3.4510    -2.4960     0.5750 c3         1 0NQ      -0.090100
     14 C28          5.5760    -1.2030     0.8080 c3         1 0NQ      -0.090100
     15 C21          3.3660    -0.0010    -0.8330 c2         1 0NQ       0.196900
     16 O25          4.4310    -0.0030    -1.6540 oh         1 0NQ      -0.461100
     17 C1           2.0550    -0.0060    -1.2010 ce         1 0NQ      -0.332800
     18 C2           1.5580    -0.0100    -2.5890 cf         1 0NQ       0.829500
     19 N5           2.4530    -0.0070    -3.5280 ne         1 0NQ      -0.933900
     20 P4           1.9820    -0.0290    -5.1070 py         1 0NQ       1.581400
     21 O6           2.1920     1.3030    -5.7160 o          1 0NQ      -0.802300
     22 O7           2.8200    -1.1410    -5.9160 os         1 0NQ      -0.588200
     23 C19          2.6350    -1.3940    -7.3100 c3         1 0NQ       0.201400
     24 C20          3.5860    -2.5070    -7.7570 c3         1 0NQ      -0.095100
     25 C8           0.2130    -0.4480    -5.1240 ca         1 0NQ      -0.360500
     26 C13         -0.4290    -0.8060    -6.2840 ca         1 0NQ      -0.053000
     27 C12         -1.7840    -1.1210    -6.2480 ca         1 0NQ       0.094600
     28 N14         -2.4500    -1.4860    -7.4230 nu         1 0NQ      -0.767500
     29 S15         -3.4970    -2.7690    -7.4170 s6         1 0NQ       1.324900
     30 C18         -2.4710    -4.1880    -6.9410 c3         1 0NQ      -0.243300
     31 O17         -4.4260    -2.4580    -6.3870 o          1 0NQ      -0.626800
     32 O16         -3.9150    -2.8860    -8.7700 o          1 0NQ      -0.626800
     33 C11         -2.4730    -1.0730    -5.0420 ca         1 0NQ      -0.106000
     34 C10         -1.8220    -0.7110    -3.8800 ca         1 0NQ      -0.152000
     35 C9          -0.4700    -0.3930    -3.9110 ca         1 0NQ       0.199600
     36 N3           0.2060    -0.0200    -2.7540 nu         1 0NQ      -0.752600
     37 H1           0.6190    -0.6180     2.5640 h1         1 0NQ       0.074700
     38 H2           2.2770    -0.3930     3.1390 h1         1 0NQ       0.074700
     39 H3           2.0340     2.0640     2.7760 hc         1 0NQ       0.052700
     40 H4           0.3500     1.8030     2.3000 hc         1 0NQ       0.052700
     41 H5           1.7450     1.2220     6.2710 hc         1 0NQ       0.036367
     42 H6           2.8330     1.3240     4.8800 hc         1 0NQ       0.036367
     43 H7           1.9250    -0.1630     5.1860 hc         1 0NQ       0.036367
     44 H8           1.2750     3.5060     4.6700 hc         1 0NQ       0.036367
     45 H9           0.1090     2.8830     5.8460 hc         1 0NQ       0.036367
     46 H10         -0.4090     3.2470     4.1940 hc         1 0NQ       0.036367
     47 H11         -0.1810    -0.4900     4.5370 hc         1 0NQ       0.036367
     48 H12         -1.1960     0.7450     3.7790 hc         1 0NQ       0.036367
     49 H13         -0.9400     0.7630     5.5290 hc         1 0NQ       0.036367
     50 H14          3.8880     0.8900     1.0410 h1         1 0NQ       0.078700
     51 H15          3.0620    -1.8520     2.9820 hc         1 0NQ       0.044589
     52 H16          4.8250    -1.8450     3.1280 hc         1 0NQ       0.044589
     53 H17          3.9320    -0.3180     3.1210 hc         1 0NQ       0.044589
     54 H18          3.8910    -3.3860     1.0080 hc         1 0NQ       0.044589
     55 H19          2.3860    -2.4860     0.7720 hc         1 0NQ       0.044589
     56 H20          3.6200    -2.4940    -0.4950 hc         1 0NQ       0.044589
     57 H21          6.1430    -1.8590     1.4580 hc         1 0NQ       0.044589
     58 H22          5.9410    -0.1890     0.9110 hc         1 0NQ       0.044589
     59 H23          5.6920    -1.5260    -0.2200 hc         1 0NQ       0.044589
     60 H24          4.7710     0.8740    -1.7290 ho         1 0NQ       0.448000
     61 H25          1.6110    -1.7000    -7.4880 h1         1 0NQ       0.030700
     62 H26          2.8450    -0.4920    -7.8720 h1         1 0NQ       0.030700
     63 H27          3.3920    -3.4020    -7.1780 hc         1 0NQ       0.046033
     64 H28          4.6100    -2.1910    -7.6010 hc         1 0NQ       0.046033
     65 H29          3.4280    -2.7160    -8.8080 hc         1 0NQ       0.046033
     66 H30          0.0800    -0.7140    -7.2350 ha         1 0NQ       0.139000
     67 H31         -2.2950    -0.9710    -8.2670 hn         1 0NQ       0.467800
     68 H32         -2.2960    -4.1650    -5.8730 h1         1 0NQ       0.100367
     69 H33         -1.5230    -4.1400    -7.4640 h1         1 0NQ       0.100367
     70 H34         -2.9820    -5.1070    -7.2040 h1         1 0NQ       0.100367
     71 H35         -3.5270    -1.3180    -5.0150 ha         1 0NQ       0.187000
     72 H36         -2.3660    -0.6760    -2.9430 ha         1 0NQ       0.149000
     73 H37         -0.3510     0.2650    -1.9720 hn         1 0NQ       0.486800
@<TRIPOS>BOND
     1    32    29 2
     2    30    29 1
     3    31    29 2
     4    29    28 1
     5    28    27 1
     6    26    27 ar
     7    26    25 ar
     8    27    33 ar
     9    24    23 1
    10    22    23 1
    11    22    20 1
    12    21    20 2
    13    25    20 1
    14    25    35 ar
    15    20    19 1
    16    33    34 ar
    17    35    34 ar
    18    35    36 1
    19    19    18 2
    20    36    18 1
    21    18    17 1
    22    16    15 1
    23    17    15 2
    24    17     2 1
    25    15    10 1
    26    12    11 1
    27     1     2 2
    28     2     3 1
    29    10    11 1
    30    10     3 1
    31    14    11 1
    32    11    13 1
    33     3     4 1
    34     4     5 1
    35     5     6 1
    36     8     6 1
    37     6     7 1
    38     6     9 1
    39     4    37 1
    40     4    38 1
    41     5    39 1
    42     5    40 1
    43     7    41 1
    44     7    42 1
    45     7    43 1
    46     8    44 1
    47     8    45 1
    48     8    46 1
    49     9    47 1
    50     9    48 1
    51     9    49 1
    52    10    50 1
    53    12    51 1
    54    12    52 1
    55    12    53 1
    56    13    54 1
    57    13    55 1
    58    13    56 1
    59    14    57 1
    60    14    58 1
    61    14    59 1
    62    16    60 1
    63    23    61 1
    64    23    62 1
    65    24    63 1
    66    24    64 1
    67    24    65 1
    68    26    66 1
    69    28    67 1
    70    30    68 1
    71    30    69 1
    72    30    70 1
    73    33    71 1
    74    34    72 1
    75    36    73 1
@<TRIPOS>SUBSTRUCTURE
     1 0NQ         1 TEMP              0 ****  ****    0 ROOT
