@<TRIPOS>MOLECULE
molecule
   77    83     1     0     0
SMALL
bcc


@<TRIPOS>ATOM
      1 C1           0.0000     0.0000     0.0000 ca         1 0NR      -0.320900
      2 C2           1.3970     0.0000     0.0000 ca         1 0NR      -0.003000
      3 C3           2.0460     0.0000     1.2210 ca         1 0NR      -0.298300
      4 C4           1.2980     0.0010     2.3890 ca         1 0NR       0.484200
      5 N5          -0.0180     0.0010     2.3660 nb         1 0NR      -0.729000
      6 C6          -0.6940     0.0020     1.2250 ca         1 0NR       0.692200
      7 N7          -2.0690     0.0030     1.2200 na         1 0NR      -0.477500
      8 C8          -2.7530     0.0040     2.4400 ca         1 0NR       0.090600
      9 C9          -2.7840     0.0040     0.0560 cc         1 0NR       0.161800
     10 C10         -2.1870     0.0020    -1.1620 cd         1 0NR      -0.245400
     11 C11         -3.0250     0.0020    -2.4150 c3         1 0NR       0.023100
     12 C12         -3.1930     1.4180    -2.9060 ca         1 0NR      -0.049300
     13 C13         -0.7690     0.0060    -1.2540 c          1 0NR       0.597900
     14 O14         -0.2080     0.0050    -2.3360 o          1 0NR      -0.559100
     15 C15         -3.1340    -1.1970     3.0260 ca         1 0NR      -0.096000
     16 C16         -3.8110    -1.1920     4.2300 ca         1 0NR      -0.126000
     17 C17         -4.1070     0.0060     4.8530 ca         1 0NR      -0.108000
     18 C18         -3.7280     1.2020     4.2740 ca         1 0NR      -0.126000
     19 C19         -3.0480     1.2050     3.0720 ca         1 0NR      -0.096000
     20 C20         -4.2640     0.0060     0.1270 c          1 0NR       0.646300
     21 O21         -4.8580     1.0280     0.4010 o          1 0NR      -0.527000
     22 O22         -4.9510    -1.1280    -0.1130 os         1 0NR      -0.409900
     23 C23         -6.3980    -1.0520    -0.0270 c3         1 0NR       0.136700
     24 C24         -2.2780     1.9520    -3.7940 ca         1 0NR      -0.124000
     25 C25         -2.4280     3.2470    -4.2470 ca         1 0NR      -0.084500
     26 C26         -3.5050     4.0180    -3.8080 ca         1 0NR      -0.166600
     27 C27         -4.4250     3.4720    -2.9110 ca         1 0NR      -0.084500
     28 C28         -4.2670     2.1750    -2.4690 ca         1 0NR      -0.124000
     29 C29         -3.6700     5.4060    -4.2890 c          1 0NR       0.682700
     30 O30         -2.8670     5.8780    -5.0690 o          1 0NR      -0.608100
     31 N31         -4.7110     6.1470    -3.8620 ns         1 0NR      -0.589900
     32 C32         -4.8760     7.5220    -4.3390 c3         1 0NR       0.126700
     33 C33         -4.0380     8.4650    -3.4730 c3         1 0NR      -0.072200
     34 C34         -4.5040     8.3710    -2.0180 c3         1 0NR      -0.079900
     35 C35         -5.9780     8.7700    -1.9280 c3         1 0NR      -0.058700
     36 C36         -6.8150     7.8270    -2.7950 c3         1 0NR      -0.079900
     37 C37         -6.3500     7.9210    -4.2490 c3         1 0NR      -0.072200
     38 C38         -6.1500    10.2070    -2.4270 c3         1 0NR      -0.085400
     39 C39         -5.6840    10.3010    -3.8810 c3         1 0NR       0.104200
     40 C40         -6.5210     9.3580    -4.7470 c3         1 0NR      -0.083900
     41 C41         -4.2100     9.9020    -3.9710 c3         1 0NR      -0.083900
     42 N42         -5.8480    11.6800    -4.3590 nz         1 0NR      -0.807600
     43 H1           1.9560    -0.0010    -0.9280 ha         1 0NR       0.167000
     44 H2           3.1280     0.0000     1.2650 ha         1 0NR       0.150000
     45 H3           1.8100     0.0010     3.3440 h4         1 0NR       0.033100
     46 H4          -3.9980    -0.4230    -2.1990 hc         1 0NR       0.072700
     47 H5          -2.5340    -0.5890    -3.1780 hc         1 0NR       0.072700
     48 H6          -2.9030    -2.1360     2.5370 ha         1 0NR       0.144500
     49 H7          -4.1090    -2.1280     4.6870 ha         1 0NR       0.139000
     50 H8          -4.6390     0.0060     5.7970 ha         1 0NR       0.137000
     51 H9          -3.9600     2.1390     4.7670 ha         1 0NR       0.139000
     52 H10         -2.7520     2.1430     2.6190 ha         1 0NR       0.144500
     53 H11         -6.8170    -2.0480    -0.1110 h1         1 0NR       0.055033
     54 H12         -6.7760    -0.4320    -0.8300 h1         1 0NR       0.055033
     55 H13         -6.6810    -0.6210     0.9260 h1         1 0NR       0.055033
     56 H14         -1.4430     1.3530    -4.1350 ha         1 0NR       0.155000
     57 H15         -1.7100     3.6640    -4.9430 ha         1 0NR       0.136000
     58 H16         -5.2640     4.0640    -2.5670 ha         1 0NR       0.136000
     59 H17         -4.9800     1.7500    -1.7730 ha         1 0NR       0.155000
     60 H18         -5.4020     5.7400    -3.2630 hn         1 0NR       0.323500
     61 H19         -4.5460     7.5890    -5.3690 h1         1 0NR       0.087700
     62 H20         -2.9940     8.1830    -3.5380 hc         1 0NR       0.099700
     63 H21         -3.9110     9.0400    -1.4050 hc         1 0NR       0.065700
     64 H22         -4.3830     7.3540    -1.6650 hc         1 0NR       0.065700
     65 H23         -6.3080     8.7030    -0.8990 hc         1 0NR       0.085700
     66 H24         -6.6940     6.8100    -2.4420 hc         1 0NR       0.065700
     67 H25         -7.8590     8.1090    -2.7310 hc         1 0NR       0.065700
     68 H26         -6.9430     7.2530    -4.8620 hc         1 0NR       0.099700
     69 H27         -7.1930    10.4890    -2.3630 hc         1 0NR       0.060200
     70 H28         -5.5560    10.8740    -1.8140 hc         1 0NR       0.060200
     71 H29         -7.5650     9.6400    -4.6830 hc         1 0NR       0.063450
     72 H30         -6.1910     9.4240    -5.7770 hc         1 0NR       0.063450
     73 H31         -3.8800     9.9700    -5.0010 hc         1 0NR       0.063450
     74 H32         -3.6170    10.5700    -3.3570 hc         1 0NR       0.063450
     75 H33         -5.5430    11.7420    -5.3110 hn         1 0NR       0.450467
     76 H34         -5.3000    12.2970    -3.7930 hn         1 0NR       0.450467
     77 H423        -6.8120    11.9410    -4.3010 hn         1 0NR       0.450467
@<TRIPOS>BOND
     1    42    39 1   
     2    41    39 1   
     3    41    33 1   
     4    38    39 1   
     5    38    35 1   
     6    39    40 1   
     7    34    33 1   
     8    34    35 1   
     9    33    32 1   
    10    35    36 1   
    11    40    37 1   
    12    32    37 1   
    13    32    31 1   
    14    36    37 1   
    15    31    29 1   
    16    29    30 2   
    17    29    26 1   
    18    26    25 ar  
    19    26    27 ar  
    20    25    24 ar  
    21    27    28 ar  
    22    24    12 ar  
    23    28    12 ar  
    24    12    11 1   
    25    11    10 1   
    26    14    13 2   
    27    13    10 1   
    28    13     1 1   
    29    10     9 2   
    30     2     1 ar  
    31     2     3 ar  
    32     1     6 ar  
    33     9    20 1   
    34     9     7 1   
    35    22    20 1   
    36    22    23 1   
    37    20    21 2   
    38     3     4 ar  
    39     6     7 1   
    40     6     5 ar  
    41     7     8 1   
    42     4     5 ar  
    43     8    15 ar  
    44     8    19 ar  
    45    15    16 ar  
    46    19    18 ar  
    47    16    17 ar  
    48    18    17 ar  
    49     2    43 1   
    50     3    44 1   
    51     4    45 1   
    52    11    46 1   
    53    11    47 1   
    54    15    48 1   
    55    16    49 1   
    56    17    50 1   
    57    18    51 1   
    58    19    52 1   
    59    23    53 1   
    60    23    54 1   
    61    23    55 1   
    62    24    56 1   
    63    25    57 1   
    64    27    58 1   
    65    28    59 1   
    66    31    60 1   
    67    32    61 1   
    68    33    62 1   
    69    34    63 1   
    70    34    64 1   
    71    35    65 1   
    72    36    66 1   
    73    36    67 1   
    74    37    68 1   
    75    38    69 1   
    76    38    70 1   
    77    40    71 1   
    78    40    72 1   
    79    41    73 1   
    80    41    74 1   
    81    42    75 1   
    82    42    76 1   
    83    77    42 1   
@<TRIPOS>SUBSTRUCTURE
     1 0NR         1 TEMP              0 ****  ****    0 ROOT
