@<TRIPOS>MOLECULE
0NR
   77    83     1     0     0
SMALL
bcc


@<TRIPOS>ATOM
      1 C1           0.0000     0.0000     0.0000 ca         1 0NR      -0.323900
      2 C2           1.3970     0.0000     0.0000 ca         1 0NR       0.033000
      3 C3           2.0460     0.0000     1.2210 ca         1 0NR      -0.267300
      4 C4           1.2980     0.0010     2.3890 ca         1 0NR       0.465200
      5 N5          -0.0180     0.0010     2.3660 nb         1 0NR      -0.616000
      6 C6          -0.6940     0.0020     1.2250 ca         1 0NR       0.470200
      7 N7          -2.0690     0.0030     1.2200 na         1 0NR       0.033500
      8 C8          -2.7530     0.0040     2.4400 ca         1 0NR      -0.087400
      9 C9          -2.7840     0.0040     0.0560 cc         1 0NR      -0.035200
     10 C10         -2.1870     0.0020    -1.1620 cd         1 0NR      -0.260400
     11 C11         -3.0250     0.0020    -2.4150 c3         1 0NR       0.097100
     12 C12         -3.1930     1.4180    -2.9060 ca         1 0NR      -0.053300
     13 C13         -0.7690     0.0060    -1.2540 c          1 0NR       0.651900
     14 O14         -0.2080     0.0050    -2.3360 o          1 0NR      -0.599100
     15 C15         -3.1340    -1.1970     3.0260 ca         1 0NR      -0.056500
     16 C16         -3.8110    -1.1920     4.2300 ca         1 0NR      -0.098500
     17 C17         -4.1070     0.0060     4.8530 ca         1 0NR      -0.068000
     18 C18         -3.7280     1.2020     4.2740 ca         1 0NR      -0.098500
     19 C19         -3.0480     1.2050     3.0720 ca         1 0NR      -0.056500
     20 C20         -4.2640     0.0060     0.1270 c          1 0NR       0.722300
     21 O21         -4.8580     1.0280     0.4010 o          1 0NR      -0.573000
     22 O22         -4.9510    -1.1280    -0.1130 os         1 0NR      -0.398900
     23 C23         -6.3980    -1.0520    -0.0270 c3         1 0NR       0.266700
     24 C24         -2.2780     1.9520    -3.7940 ca         1 0NR      -0.103500
     25 C25         -2.4280     3.2470    -4.2470 ca         1 0NR      -0.055500
     26 C26         -3.5050     4.0180    -3.8080 ca         1 0NR      -0.183600
     27 C27         -4.4250     3.4720    -2.9110 ca         1 0NR      -0.055500
     28 C28         -4.2670     2.1750    -2.4690 ca         1 0NR      -0.103500
     29 C29         -3.6700     5.4060    -4.2890 c          1 0NR       0.614700
     30 O30         -2.8670     5.8780    -5.0690 o          1 0NR      -0.647100
     31 N31         -4.7110     6.1470    -3.8620 ns         1 0NR      -0.220900
     32 C32         -4.8760     7.5220    -4.3390 c3         1 0NR       0.031700
     33 C33         -4.0380     8.4650    -3.4730 c3         1 0NR      -0.047700
     34 C34         -4.5040     8.3710    -2.0180 c3         1 0NR      -0.028400
     35 C35         -5.9780     8.7700    -1.9280 c3         1 0NR      -0.030700
     36 C36         -6.8150     7.8270    -2.7950 c3         1 0NR      -0.028400
     37 C37         -6.3500     7.9210    -4.2490 c3         1 0NR      -0.047700
     38 C38         -6.1500    10.2070    -2.4270 c3         1 0NR      -0.017400
     39 C39         -5.6840    10.3010    -3.8810 c3         1 0NR      -0.100800
     40 C40         -6.5210     9.3580    -4.7470 c3         1 0NR      -0.012400
     41 C41         -4.2100     9.9020    -3.9710 c3         1 0NR      -0.012400
     42 N42         -5.8480    11.6800    -4.3590 nz         1 0NR       0.070400
     43 H1           1.9560    -0.0010    -0.9280 ha         1 0NR       0.131000
     44 H2           3.1280     0.0000     1.2650 ha         1 0NR       0.123000
     45 H3           1.8100     0.0010     3.3440 h4         1 0NR      -0.016900
     46 H4          -3.9980    -0.4230    -2.1990 hc         1 0NR       0.036700
     47 H5          -2.5340    -0.5890    -3.1780 hc         1 0NR       0.036700
     48 H6          -2.9030    -2.1360     2.5370 ha         1 0NR       0.113000
     49 H7          -4.1090    -2.1280     4.6870 ha         1 0NR       0.110000
     50 H8          -4.6390     0.0060     5.7970 ha         1 0NR       0.107000
     51 H9          -3.9600     2.1390     4.7670 ha         1 0NR       0.110000
     52 H10         -2.7520     2.1430     2.6190 ha         1 0NR       0.113000
     53 H11         -6.8170    -2.0480    -0.1110 h1         1 0NR       0.005700
     54 H12         -6.7760    -0.4320    -0.8300 h1         1 0NR       0.005700
     55 H13         -6.6810    -0.6210     0.9260 h1         1 0NR       0.005700
     56 H14         -1.4430     1.3530    -4.1350 ha         1 0NR       0.131000
     57 H15         -1.7100     3.6640    -4.9430 ha         1 0NR       0.109000
     58 H16         -5.2640     4.0640    -2.5670 ha         1 0NR       0.109000
     59 H17         -4.9800     1.7500    -1.7730 ha         1 0NR       0.131000
     60 H18         -5.4020     5.7400    -3.2630 hn         1 0NR       0.195500
     61 H19         -4.5460     7.5890    -5.3690 h1         1 0NR       0.063700
     62 H20         -2.9940     8.1830    -3.5380 hc         1 0NR       0.068700
     63 H21         -3.9110     9.0400    -1.4050 hc         1 0NR       0.037200
     64 H22         -4.3830     7.3540    -1.6650 hc         1 0NR       0.037200
     65 H23         -6.3080     8.7030    -0.8990 hc         1 0NR       0.054700
     66 H24         -6.6940     6.8100    -2.4420 hc         1 0NR       0.037200
     67 H25         -7.8590     8.1090    -2.7310 hc         1 0NR       0.037200
     68 H26         -6.9430     7.2530    -4.8620 hc         1 0NR       0.068700
     69 H27         -7.1930    10.4890    -2.3630 hc         1 0NR       0.031700
     70 H28         -5.5560    10.8740    -1.8140 hc         1 0NR       0.031700
     71 H29         -7.5650     9.6400    -4.6830 hc         1 0NR       0.034200
     72 H30         -6.1910     9.4240    -5.7770 hc         1 0NR       0.034200
     73 H31         -3.8800     9.9700    -5.0010 hc         1 0NR       0.034200
     74 H32         -3.6170    10.5700    -3.3570 hc         1 0NR       0.034200
     75 H33         -5.5430    11.7420    -5.3110 hn         1 0NR       0.224467
     76 H34         -5.3000    12.2970    -3.7930 hn         1 0NR       0.224467
     77 H423        -6.8120    11.9410    -4.3010 hn         1 0NR       0.224467
@<TRIPOS>BOND
     1     1     2 ar  
     2     1     6 ar  
     3     1    13 1   
     4     2     3 ar  
     5     2    43 1   
     6     3     4 ar  
     7     3    44 1   
     8     4     5 ar  
     9     4    45 1   
    10     5     6 ar  
    11     6     7 1   
    12     7     8 1   
    13     7     9 1   
    14     8    15 ar  
    15     8    19 ar  
    16     9    10 2   
    17     9    20 1   
    18    10    11 1   
    19    10    13 1   
    20    11    12 1   
    21    11    46 1   
    22    11    47 1   
    23    12    24 ar  
    24    12    28 ar  
    25    13    14 2   
    26    15    16 ar  
    27    15    48 1   
    28    16    17 ar  
    29    16    49 1   
    30    17    18 ar  
    31    17    50 1   
    32    18    19 ar  
    33    18    51 1   
    34    19    52 1   
    35    20    21 2   
    36    20    22 1   
    37    22    23 1   
    38    23    53 1   
    39    23    54 1   
    40    23    55 1   
    41    24    25 ar  
    42    24    56 1   
    43    25    26 ar  
    44    25    57 1   
    45    26    27 ar  
    46    26    29 1   
    47    27    28 ar  
    48    27    58 1   
    49    28    59 1   
    50    29    30 2   
    51    29    31 1   
    52    31    32 1   
    53    31    60 1   
    54    32    33 1   
    55    32    37 1   
    56    32    61 1   
    57    33    34 1   
    58    33    41 1   
    59    33    62 1   
    60    34    35 1   
    61    34    63 1   
    62    34    64 1   
    63    35    36 1   
    64    35    38 1   
    65    35    65 1   
    66    36    37 1   
    67    36    66 1   
    68    36    67 1   
    69    37    40 1   
    70    37    68 1   
    71    38    39 1   
    72    38    69 1   
    73    38    70 1   
    74    39    40 1   
    75    39    41 1   
    76    39    42 1   
    77    40    71 1   
    78    40    72 1   
    79    41    73 1   
    80    41    74 1   
    81    42    75 1   
    82    42    76 1   
    83    42    77 1   
@<TRIPOS>SUBSTRUCTURE
     1 0NR         1 TEMP              0 ****  ****    0 ROOT
