@<TRIPOS>MOLECULE
0NR
   78    84     1     0     0
SMALL
bcc


@<TRIPOS>ATOM
      1 C1          -0.2800     0.4300     0.1280 ca         1 0NR      -0.311900
      2 C2           1.1170     0.5870     0.0220 ca         1 0NR      -0.017000
      3 C3           1.9160     0.3950     1.1340 ca         1 0NR      -0.275300
      4 C4           1.2870     0.0460     2.3540 ca         1 0NR       0.466200
      5 N5          -0.0270    -0.1180     2.5060 nb         1 0NR      -0.684000
      6 C6          -0.8240     0.0610     1.3950 ca         1 0NR       0.667200
      7 N7          -2.2180    -0.1270     1.5270 na         1 0NR      -0.472500
      8 C8          -2.7680    -0.5550     2.7820 ca         1 0NR       0.078600
      9 C9          -3.0240     0.0020     0.4130 cc         1 0NR       0.192800
     10 C10         -2.5600     0.3730    -0.8260 cd         1 0NR      -0.280400
     11 C11         -3.4560     0.4550    -2.0110 c3         1 0NR       0.005100
     12 C12         -3.6990     1.8640    -2.4410 ca         1 0NR       0.048700
     13 C13         -1.1340     0.6290    -1.0400 c          1 0NR       0.607900
     14 O14         -0.6850     0.9980    -2.1430 o          1 0NR      -0.608100
     15 C15         -2.7580     0.3210     3.8850 ca         1 0NR      -0.101500
     16 C16         -3.2690    -0.1100     5.1080 ca         1 0NR      -0.122500
     17 C17         -3.7830    -1.3980     5.2480 ca         1 0NR      -0.102000
     18 C18         -3.7890    -2.2670     4.1570 ca         1 0NR      -0.122500
     19 C19         -3.2820    -1.8590     2.9250 ca         1 0NR      -0.101500
     20 C20         -4.4840    -0.3080     0.5790 c          1 0NR       0.626300
     21 O21         -5.0370    -1.3940     0.4310 o          1 0NR      -0.483000
     22 O22         -5.2350     0.7950     0.8700 os         1 0NR      -0.436900
     23 C23         -6.6260     0.5630     1.1290 c3         1 0NR       0.117700
     24 C24         -2.8790     2.4430    -3.4300 ca         1 0NR      -0.121500
     25 C25         -3.1060     3.7360    -3.8670 ca         1 0NR      -0.059500
     26 C26         -4.1650     4.4910    -3.3230 ca         1 0NR      -0.239600
     27 C27         -4.9760     3.9190    -2.3200 ca         1 0NR      -0.059500
     28 C28         -4.7400     2.6190    -1.8870 ca         1 0NR      -0.121500
     29 C29         -4.4880     5.8470    -3.7170 c          1 0NR       0.589700
     30 O30         -5.3470     6.6050    -3.2850 o          1 0NR      -0.459100
     31 N31         -3.6300     6.4320    -4.8550 ny         1 0NR      -0.681800
     32 C32         -4.0520     7.7920    -5.3110 c3         1 0NR       0.119500
     33 C33         -3.5250     8.1230    -6.7250 c3         1 0NR      -0.070700
     34 C34         -2.0130     8.2990    -6.7200 c3         1 0NR      -0.098900
     35 C35         -1.6270     9.4240    -5.7690 c3         1 0NR      -0.062700
     36 C36         -2.0960     9.0940    -4.3580 c3         1 0NR      -0.098900
     37 C37         -3.6070     8.9150    -4.3470 c3         1 0NR      -0.070700
     38 C38         -2.2680    10.7290    -6.2290 c3         1 0NR      -0.096400
     39 C39         -3.8020    10.5620    -6.2240 c3         1 0NR       0.131200
     40 C40         -4.2780    10.2100    -4.7990 c3         1 0NR      -0.092900
     41 C41         -4.1940     9.4180    -7.1820 c3         1 0NR      -0.092900
     42 N42         -4.4540    11.8560    -6.6760 nz         1 0NR      -0.840600
     43 H1           1.5420     0.8580    -0.9590 ha         1 0NR       0.166000
     44 H2           3.0080     0.5000     1.0870 ha         1 0NR       0.164000
     45 H3           1.8880    -0.1160     3.2720 h4         1 0NR       0.045100
     46 H4          -4.4440    -0.0440    -1.8040 hc         1 0NR       0.086200
     47 H5          -2.9640    -0.1090    -2.8560 hc         1 0NR       0.086200
     48 H6          -2.3360     1.3330     3.7960 ha         1 0NR       0.151000
     49 H7          -3.2570     0.5750     5.9700 ha         1 0NR       0.150000
     50 H8          -4.1780    -1.7320     6.2200 ha         1 0NR       0.150000
     51 H9          -4.1890    -3.2870     4.2650 ha         1 0NR       0.150000
     52 H10         -3.2960    -2.5560     2.0710 ha         1 0NR       0.151000
     53 H11         -7.1240     0.1980     0.2000 h1         1 0NR       0.063033
     54 H12         -6.7440    -0.1850     1.9500 h1         1 0NR       0.063033
     55 H13         -7.0030     1.5700     1.4350 h1         1 0NR       0.063033
     56 H14         -2.0260     1.8570    -3.8250 ha         1 0NR       0.191500
     57 H15         -2.4310     4.1430    -4.6350 ha         1 0NR       0.141000
     58 H16         -5.7990     4.5080    -1.8800 ha         1 0NR       0.141000
     59 H17         -5.3670     2.1820    -1.0870 ha         1 0NR       0.191500
     60 H18         -2.6570     6.4630    -4.5310 hn         1 0NR       0.458800
     61 H19         -5.1860     7.7710    -5.3370 hx         1 0NR       0.120700
     62 H20         -3.8120     7.3110    -7.4500 hc         1 0NR       0.105700
     63 H21         -1.5020     7.3490    -6.4160 hc         1 0NR       0.077450
     64 H22         -1.6610     8.5390    -7.7590 hc         1 0NR       0.077450
     65 H23         -0.5080     9.5530    -5.7740 hc         1 0NR       0.112700
     66 H24         -1.8150     9.9250    -3.6570 hc         1 0NR       0.077450
     67 H25         -1.5740     8.1750    -3.9850 hc         1 0NR       0.077450
     68 H26         -3.9640     8.6800    -3.3040 hc         1 0NR       0.105700
     69 H27         -1.9630    11.5570    -5.5350 hc         1 0NR       0.082200
     70 H28         -1.9050    10.9790    -7.2600 hc         1 0NR       0.082200
     71 H29         -5.3930    10.0880    -4.7750 hc         1 0NR       0.085200
     72 H30         -3.9980    11.0250    -4.0790 hc         1 0NR       0.085200
     73 H31         -3.8510     9.6460    -8.2270 hc         1 0NR       0.085200
     74 H32         -5.3080     9.2840    -7.1990 hc         1 0NR       0.085200
     75 H33         -5.4730    11.7540    -6.6750 hn         1 0NR       0.466133
     76 H34         -4.1380    12.0880    -7.6240 hn         1 0NR       0.466133
     77 H423        -4.1890    12.6140    -6.0390 hn         1 0NR       0.466133
     78 H312        -3.6810     5.7830    -5.6490 hn         1 0NR       0.458800
@<TRIPOS>BOND
     1     1     2 ar  
     2     1     6 ar  
     3     1    13 1   
     4     2     3 ar  
     5     2    43 1   
     6     3     4 ar  
     7     3    44 1   
     8     4     5 ar  
     9     4    45 1   
    10     5     6 ar  
    11     6     7 1   
    12     7     8 1   
    13     7     9 1   
    14     8    15 ar  
    15     8    19 ar  
    16     9    10 2   
    17     9    20 1   
    18    10    11 1   
    19    10    13 1   
    20    11    12 1   
    21    11    46 1   
    22    11    47 1   
    23    12    24 ar  
    24    12    28 ar  
    25    13    14 2   
    26    15    16 ar  
    27    15    48 1   
    28    16    17 ar  
    29    16    49 1   
    30    17    18 ar  
    31    17    50 1   
    32    18    19 ar  
    33    18    51 1   
    34    19    52 1   
    35    20    21 2   
    36    20    22 1   
    37    22    23 1   
    38    23    53 1   
    39    23    54 1   
    40    23    55 1   
    41    24    25 ar  
    42    24    56 1   
    43    25    26 ar  
    44    25    57 1   
    45    26    27 ar  
    46    26    29 1   
    47    27    28 ar  
    48    27    58 1   
    49    28    59 1   
    50    29    30 2   
    51    29    31 1   
    52    31    32 1   
    53    31    60 1   
    54    31    78 1   
    55    32    33 1   
    56    32    37 1   
    57    32    61 1   
    58    33    34 1   
    59    33    41 1   
    60    33    62 1   
    61    34    35 1   
    62    34    63 1   
    63    34    64 1   
    64    35    36 1   
    65    35    38 1   
    66    35    65 1   
    67    36    37 1   
    68    36    66 1   
    69    36    67 1   
    70    37    40 1   
    71    37    68 1   
    72    38    39 1   
    73    38    69 1   
    74    38    70 1   
    75    39    40 1   
    76    39    41 1   
    77    39    42 1   
    78    40    71 1   
    79    40    72 1   
    80    41    73 1   
    81    41    74 1   
    82    42    75 1   
    83    42    76 1   
    84    42    77 1   
@<TRIPOS>SUBSTRUCTURE
     1 0NR         1 TEMP              0 ****  ****    0 ROOT
