@<TRIPOS>MOLECULE
0NS
   41    43     1     0     0
SMALL
bcc


@<TRIPOS>ATOM
      1 CAX          0.0000     0.0000     0.0000 c3         1 0NS       0.252700
      2 OAW          1.4300     0.0000     0.0000 os         1 0NS      -0.305900
      3 CAE          2.0450     0.0000     1.2110 ca         1 0NS       0.249100
      4 CAF          1.2960    -0.1100     2.3730 ca         1 0NS      -0.240000
      5 CAA          1.9250    -0.1100     3.6030 ca         1 0NS       0.000000
      6 CAB          3.3010     0.0000     3.6770 ca         1 0NS      -0.174000
      7 CAC          4.0510     0.1100     2.5200 ca         1 0NS       0.047000
      8 CAD          3.4270     0.1050     1.2880 ca         1 0NS      -0.193500
      9 SAT          4.3840     0.2390    -0.1860 sy         1 0NS       1.047200
     10 OAU          3.7840     1.2670    -0.9620 o          1 0NS      -0.584800
     11 OAV          5.7450     0.2670     0.2210 o          1 0NS      -0.584800
     12 NAG          4.1770    -1.1680    -1.0340 nu         1 0NS      -0.390500
     13 CAH          4.6100    -2.3830    -0.4890 ca         1 0NS       0.030600
     14 CAM          3.7830    -3.4990    -0.5360 ca         1 0NS      -0.084000
     15 CAL          4.2150    -4.6890     0.0020 ca         1 0NS      -0.132300
     16 CAQ          3.3450    -5.9250    -0.0280 c3         1 0NS       0.121300
     17 NAP          3.9030    -7.1480     0.5760 n          1 0NS      -0.164800
     18 CAS          3.1250    -8.3890     0.5870 c3         1 0NS       0.120300
     19 CAO          5.1350    -7.1100     1.1150 c          1 0NS       0.612500
     20 OAR          5.5820    -8.1270     1.6090 o          1 0NS      -0.737500
     21 NAN          5.8920    -6.0060     1.1320 ns         1 0NS      -0.019100
     22 CAK          5.4710    -4.7870     0.5910 ca         1 0NS      -0.082400
     23 CAJ          6.2950    -3.6710     0.6370 ca         1 0NS      -0.123000
     24 CAI          5.8670    -2.4760     0.0930 ca         1 0NS      -0.109000
     25 H1          -0.3610     0.0470    -1.0200 h1         1 0NS       0.000033
     26 H2          -0.3610    -0.9070     0.4690 h1         1 0NS       0.000033
     27 H3          -0.3610     0.8600     0.5510 h1         1 0NS       0.000033
     28 H4           0.2180    -0.1970     2.3160 ha         1 0NS       0.125000
     29 H5           1.3390    -0.1960     4.5100 ha         1 0NS       0.100000
     30 H6           3.7930     0.0020     4.6420 ha         1 0NS       0.113000
     31 H7           5.1290     0.1950     2.5800 ha         1 0NS       0.129000
     32 H8           3.7850    -1.1440    -1.9540 hn         1 0NS       0.347800
     33 H9           2.8530    -3.4620    -1.0910 ha         1 0NS       0.111000
     34 H10          2.4210    -5.6930     0.4870 h1         1 0NS       0.011700
     35 H11          3.1130    -6.1420    -1.0640 h1         1 0NS       0.011700
     36 H12          3.6640    -9.1580     0.0470 h1         1 0NS       0.010033
     37 H13          2.1660    -8.2190     0.1130 h1         1 0NS       0.010033
     38 H14          2.9710    -8.7090     1.6110 h1         1 0NS       0.010033
     39 H15          6.7990    -6.0550     1.5520 hn         1 0NS       0.187500
     40 H16          7.2770    -3.7400     1.0900 ha         1 0NS       0.114000
     41 H17          6.5220    -1.6130     0.1040 ha         1 0NS       0.166000
@<TRIPOS>BOND
     1     1     2 1   
     2     1    25 1   
     3     1    26 1   
     4     1    27 1   
     5     2     3 1   
     6     3     4 ar  
     7     3     8 ar  
     8     4     5 ar  
     9     4    28 1   
    10     5     6 ar  
    11     5    29 1   
    12     6     7 ar  
    13     6    30 1   
    14     7     8 ar  
    15     7    31 1   
    16     8     9 1   
    17     9    10 2   
    18     9    11 2   
    19     9    12 1   
    20    12    13 1   
    21    12    32 1   
    22    13    14 ar  
    23    13    24 ar  
    24    14    15 ar  
    25    14    33 1   
    26    15    16 1   
    27    15    22 ar  
    28    16    17 1   
    29    16    34 1   
    30    16    35 1   
    31    17    18 1   
    32    17    19 1   
    33    18    36 1   
    34    18    37 1   
    35    18    38 1   
    36    19    20 2   
    37    19    21 1   
    38    21    22 1   
    39    21    39 1   
    40    22    23 ar  
    41    23    24 ar  
    42    23    40 1   
    43    24    41 1   
@<TRIPOS>SUBSTRUCTURE
     1 0NS         1 TEMP              0 ****  ****    0 ROOT
