@<TRIPOS>MOLECULE
0NS
   41    43     1     0     0
SMALL
bcc


@<TRIPOS>ATOM
      1 CAX          0.1800    -0.7540    -0.3520 c3         1 0NS       0.119700
      2 OAW          1.4200    -0.1550     0.0190 os         1 0NS      -0.348900
      3 CAE          1.9150    -0.4750     1.2650 ca         1 0NS       0.240100
      4 CAF          1.1350    -1.0650     2.2710 ca         1 0NS      -0.227000
      5 CAA          1.7040    -1.3040     3.5170 ca         1 0NS      -0.033000
      6 CAB          3.0350    -0.9600     3.7640 ca         1 0NS      -0.186000
      7 CAC          3.7980    -0.3840     2.7550 ca         1 0NS       0.007000
      8 CAD          3.2680    -0.1370     1.4800 ca         1 0NS      -0.405500
      9 SAT          4.2830     0.4910     0.2800 sy         1 0NS       1.523200
     10 OAU          4.3110    -0.3880    -0.8180 o          1 0NS      -0.650800
     11 OAV          5.5350     0.7710     0.8700 o          1 0NS      -0.650800
     12 NAG          3.5220     1.8550    -0.1810 nu         1 0NS      -0.765500
     13 CAH          3.6140     3.1440     0.3700 ca         1 0NS       0.136600
     14 CAM          4.8140     3.6220     0.9370 ca         1 0NS      -0.127000
     15 CAL          4.8810     4.9060     1.4670 ca         1 0NS      -0.121300
     16 CAQ          6.1750     5.3880     2.0510 c3         1 0NS       0.141300
     17 NAP          6.0750     6.6010     2.8340 n          1 0NS      -0.456800
     18 CAS          7.3170     7.1340     3.3270 c3         1 0NS       0.080300
     19 CAO          4.9900     7.4770     2.6740 c          1 0NS       0.806500
     20 OAR          4.9690     8.6190     3.1920 o          1 0NS      -0.664500
     21 NAN          3.8600     7.0560     1.9470 ns         1 0NS      -0.466100
     22 CAK          3.7560     5.7610     1.4360 ca         1 0NS       0.068600
     23 CAJ          2.5580     5.2870     0.8630 ca         1 0NS      -0.159000
     24 CAI          2.4920     4.0030     0.3430 ca         1 0NS      -0.129000
     25 H1          -0.6540    -0.3070     0.2420 h1         1 0NS       0.053033
     26 H2           0.2170    -1.8610    -0.2150 h1         1 0NS       0.053033
     27 H3           0.0820    -0.4910    -1.4360 h1         1 0NS       0.053033
     28 H4           0.0870    -1.3340     2.0830 ha         1 0NS       0.145000
     29 H5           1.0980    -1.7640     4.3140 ha         1 0NS       0.139000
     30 H6           3.4780    -1.1460     4.7530 ha         1 0NS       0.145000
     31 H7           4.8530    -0.1160     2.9510 ha         1 0NS       0.167000
     32 H8           2.7960     1.7800    -0.8620 hn         1 0NS       0.457800
     33 H9           5.7160     2.9840     0.9770 ha         1 0NS       0.177000
     34 H10          6.9120     5.5370     1.2040 h1         1 0NS       0.054700
     35 H11          6.5980     4.5880     2.7290 h1         1 0NS       0.054700
     36 H12          7.1190     8.0450     3.9520 h1         1 0NS       0.050033
     37 H13          8.0070     7.4100     2.4840 h1         1 0NS       0.050033
     38 H14          7.8130     6.3490     3.9590 h1         1 0NS       0.050033
     39 H15          3.0530     7.6350     1.9910 hn         1 0NS       0.341500
     40 H16          1.6670     5.9310     0.8240 ha         1 0NS       0.139000
     41 H17          1.5440     3.6600    -0.1010 ha         1 0NS       0.136000
@<TRIPOS>BOND
     1     1     2 1   
     2     1    25 1   
     3     1    26 1   
     4     1    27 1   
     5     2     3 1   
     6     3     4 ar  
     7     3     8 ar  
     8     4     5 ar  
     9     4    28 1   
    10     5     6 ar  
    11     5    29 1   
    12     6     7 ar  
    13     6    30 1   
    14     7     8 ar  
    15     7    31 1   
    16     8     9 1   
    17     9    10 2   
    18     9    11 2   
    19     9    12 1   
    20    12    13 1   
    21    12    32 1   
    22    13    14 ar  
    23    13    24 ar  
    24    14    15 ar  
    25    14    33 1   
    26    15    16 1   
    27    15    22 ar  
    28    16    17 1   
    29    16    34 1   
    30    16    35 1   
    31    17    18 1   
    32    17    19 1   
    33    18    36 1   
    34    18    37 1   
    35    18    38 1   
    36    19    20 2   
    37    19    21 1   
    38    21    22 1   
    39    21    39 1   
    40    22    23 ar  
    41    23    24 ar  
    42    23    40 1   
    43    24    41 1   
@<TRIPOS>SUBSTRUCTURE
     1 0NS         1 TEMP              0 ****  ****    0 ROOT
