@<TRIPOS>MOLECULE
0NT
   56    60     1     0     0
SMALL
bcc


@<TRIPOS>ATOM
      1 C7           0.0000     0.0000     0.0000 c3         1 0NT      -0.036400
      2 C2           0.7060    -0.6320     3.5400 c3         1 0NT       0.130500
      3 C10         -1.2320    -1.8020     1.2100 c          1 0NT       0.594100
      4 C6           1.5460     0.0000     0.0000 c3         1 0NT      -0.023400
      5 C1          -0.3720    -1.5550     4.1100 c3         1 0NT      -0.011600
      6 C3           2.0390    -0.9110     4.2390 c3         1 0NT      -0.011600
      7 N4           0.8490    -0.8780     2.0990 n3         1 0NT      -0.497600
      8 C5           1.8930     0.0000     1.5100 c3         1 0NT       0.143800
      9 C8          -0.4020    -0.5560     1.3790 c3         1 0NT       0.049500
     10 O11         -0.8380    -2.8580     1.6560 o          1 0NT      -0.612100
     11 N12         -2.4110    -1.7420     0.5610 n          1 0NT      -0.172800
     12 C13         -2.8990    -0.4710     0.0080 c3         1 0NT       0.050000
     13 C14         -4.3120    -0.2120     0.5410 c3         1 0NT      -0.057900
     14 C15         -5.2010    -1.4160     0.2250 c3         1 0NT      -0.072000
     15 C16         -4.6440    -2.6600     0.9210 c3         1 0NT      -0.057900
     16 C17         -3.2320    -2.9490     0.3870 c3         1 0NT       0.050000
     17 N18         -6.5620    -1.1580     0.7030 na         1 0NT       0.336700
     18 C19         -6.9290    -0.9080     1.9900 cc         1 0NT       0.221700
     19 N20         -8.2160    -0.7220     2.0570 nd         1 0NT      -0.486100
     20 C21         -8.7570    -0.8430     0.8200 ca         1 0NT      -0.089900
     21 C22         -7.6980    -1.1170    -0.0630 ca         1 0NT      -0.196200
     22 C23         -7.9950    -1.2880    -1.4220 ca         1 0NT      -0.201100
     23 C24         -7.2020    -1.5760    -2.6170 cc         1 0NT      -0.168200
     24 C25         -8.0580    -1.6230    -3.6520 cd         1 0NT      -0.277100
     25 N26         -9.3320    -1.3880    -3.2100 na         1 0NT       0.285900
     26 C28         -9.3280    -1.1800    -1.8500 ca         1 0NT       0.224800
     27 N29        -10.2940    -0.9180    -0.9730 nb         1 0NT      -0.587000
     28 C30        -10.0550    -0.7480     0.3080 ca         1 0NT       0.486200
     29 H1          -0.3750     1.0090    -0.1210 hc         1 0NT       0.022200
     30 H2          -0.3740    -0.6430    -0.7870 hc         1 0NT       0.022200
     31 H3           0.4170     0.4000     3.6960 h1         1 0NT      -0.000300
     32 H4           1.9270     0.8940    -0.4790 hc         1 0NT       0.024200
     33 H5           1.9270    -0.8930    -0.4790 hc         1 0NT       0.024200
     34 H6          -0.2140    -2.5630     3.7460 hc         1 0NT       0.013533
     35 H7          -1.3490    -1.2060     3.7960 hc         1 0NT       0.013533
     36 H8          -0.3170    -1.5490     5.1920 hc         1 0NT       0.013533
     37 H10          2.7040    -0.0670     4.1000 hc         1 0NT       0.013533
     38 H11          1.8660    -1.0640     5.2980 hc         1 0NT       0.013533
     39 H12          2.4900    -1.8000     3.8160 hc         1 0NT       0.013533
     40 H14          1.8220     1.0020     1.9160 h1         1 0NT       0.017700
     41 H15          2.8790    -0.4180     1.6730 h1         1 0NT       0.017700
     42 H9          -0.9590     0.1930     1.9290 h1         1 0NT       0.030700
     43 H16         -2.2430     0.3340     0.3170 h1         1 0NT       0.036200
     44 H17         -2.9250    -0.5320    -1.0730 h1         1 0NT       0.036200
     45 H18         -4.2720    -0.0650     1.6140 hc         1 0NT       0.034200
     46 H19         -4.7200     0.6720     0.0650 hc         1 0NT       0.034200
     47 H20         -5.2150    -1.5800    -0.8460 h1         1 0NT       0.063700
     48 H21         -4.5970    -2.4860     1.9890 hc         1 0NT       0.034200
     49 H22         -5.2870    -3.5070     0.7140 hc         1 0NT       0.034200
     50 H23         -2.7940    -3.7690     0.9430 h1         1 0NT       0.036200
     51 H24         -3.2860    -3.2020    -0.6650 h1         1 0NT       0.036200
     52 H25         -6.2510    -0.8680     2.8340 h5         1 0NT       0.031800
     53 H26         -6.1300    -1.7230    -2.6600 ha         1 0NT       0.124000
     54 H28         -7.7820    -1.8170    -4.6810 h4         1 0NT       0.142000
     55 H27        -10.1470    -1.3710    -3.7910 hn         1 0NT       0.117700
     56 H29        -10.8770    -0.5300     0.9790 h4         1 0NT      -0.014900
@<TRIPOS>BOND
     1     1     4 1   
     2     1     9 1   
     3     1    29 1   
     4     1    30 1   
     5     2     5 1   
     6     2     6 1   
     7     2     7 1   
     8     2    31 1   
     9     3     9 1   
    10     3    10 2   
    11     3    11 1   
    12     4     8 1   
    13     4    32 1   
    14     4    33 1   
    15     5    34 1   
    16     5    35 1   
    17     5    36 1   
    18     6    37 1   
    19     6    38 1   
    20     6    39 1   
    21     7     8 1   
    22     7     9 1   
    23     8    40 1   
    24     8    41 1   
    25     9    42 1   
    26    11    12 1   
    27    11    16 1   
    28    12    13 1   
    29    12    43 1   
    30    12    44 1   
    31    13    14 1   
    32    13    45 1   
    33    13    46 1   
    34    14    15 1   
    35    14    17 1   
    36    14    47 1   
    37    15    16 1   
    38    15    48 1   
    39    15    49 1   
    40    16    50 1   
    41    16    51 1   
    42    17    18 1   
    43    17    21 1   
    44    18    19 2   
    45    18    52 1   
    46    19    20 1   
    47    20    21 ar  
    48    20    28 ar  
    49    21    22 ar  
    50    22    23 1   
    51    22    26 ar  
    52    23    24 2   
    53    23    53 1   
    54    24    25 1   
    55    24    54 1   
    56    25    26 1   
    57    25    55 1   
    58    26    27 ar  
    59    27    28 ar  
    60    28    56 1   
@<TRIPOS>SUBSTRUCTURE
     1 0NT         1 TEMP              0 ****  ****    0 ROOT
