@<TRIPOS>MOLECULE
0NT
   56    60     1     0     0
SMALL
bcc


@<TRIPOS>ATOM
      1 C7          -0.5100     0.3990     0.3490 c3         1 0NT      -0.087400
      2 C2           0.8240    -0.9930     3.4530 c3         1 0NT       0.192500
      3 C10         -0.8690    -2.0640     0.6620 c          1 0NT       0.648100
      4 C6           0.8970     0.9770     0.3530 c3         1 0NT      -0.089400
      5 C1           2.2440    -1.0860     4.0190 c3         1 0NT      -0.096100
      6 C3           0.0620    -2.2450     3.8950 c3         1 0NT      -0.096100
      7 N4           0.8280    -0.8290     1.9970 n3         1 0NT      -0.717600
      8 C5           1.6310     0.2950     1.5160 c3         1 0NT       0.171800
      9 C8          -0.5040    -0.7500     1.3860 c3         1 0NT       0.126500
     10 O11         -0.0160    -2.8040     0.1470 o          1 0NT      -0.560100
     11 N12         -2.2240    -2.4540     0.6590 n          1 0NT      -0.465800
     12 C13         -2.5750    -3.7200     0.0440 c3         1 0NT       0.077500
     13 C14         -3.1600    -3.6060    -1.3640 c3         1 0NT      -0.122400
     14 C15         -4.3560    -2.6390    -1.3570 c3         1 0NT       0.059000
     15 C16         -3.8970    -1.2840    -0.7890 c3         1 0NT      -0.122400
     16 C17         -3.2880    -1.4780     0.6020 c3         1 0NT       0.077500
     17 N18         -4.9820    -2.5170    -2.6510 na         1 0NT      -0.153300
     18 C19         -4.3560    -2.1140    -3.8560 cc         1 0NT       0.394700
     19 N20         -5.1990    -2.0560    -4.8980 nd         1 0NT      -0.540100
     20 C21         -6.4520    -2.4280    -4.3820 ca         1 0NT      -0.088900
     21 C22         -6.3270    -2.7180    -2.9640 ca         1 0NT      -0.003200
     22 C23         -7.4640    -3.1120    -2.2500 ca         1 0NT      -0.193100
     23 C24         -7.8000    -3.4830    -0.9040 cc         1 0NT      -0.179200
     24 C25         -9.1650    -3.7700    -0.8870 cd         1 0NT      -0.117100
     25 N26         -9.7130    -3.5980    -2.1580 na         1 0NT      -0.272100
     26 C28         -8.6920    -3.1920    -3.0300 ca         1 0NT       0.421800
     27 N29         -8.8240    -2.9200    -4.3740 nb         1 0NT      -0.685000
     28 C30         -7.7220    -2.5500    -5.0130 ca         1 0NT       0.484200
     29 H1          -1.2610     1.1710     0.6480 hc         1 0NT       0.051200
     30 H2          -0.7890     0.0220    -0.6650 hc         1 0NT       0.051200
     31 H3           0.3220    -0.0980     3.9410 h1         1 0NT       0.010700
     32 H4           0.8810     2.0850     0.4930 hc         1 0NT       0.053700
     33 H5           1.4170     0.7600    -0.6130 hc         1 0NT       0.053700
     34 H6           2.7940    -1.9460     3.5660 hc         1 0NT       0.042200
     35 H7           2.1810    -1.2410     5.1220 hc         1 0NT       0.042200
     36 H8           2.8220    -0.1520     3.8260 hc         1 0NT       0.042200
     37 H10          0.0810    -2.3030     5.0090 hc         1 0NT       0.042200
     38 H11         -1.0020    -2.2160     3.5600 hc         1 0NT       0.042200
     39 H12          0.5410    -3.1630     3.4780 hc         1 0NT       0.042200
     40 H14          1.8320     1.0500     2.3280 h1         1 0NT       0.045200
     41 H15          2.6170    -0.1230     1.1780 h1         1 0NT       0.045200
     42 H9          -1.2820    -0.5450     2.1800 h1         1 0NT       0.054700
     43 H16         -1.6620    -4.3800     0.0030 h1         1 0NT       0.062200
     44 H17         -3.3370    -4.2100     0.7160 h1         1 0NT       0.062200
     45 H18         -2.3750    -3.2480    -2.0790 hc         1 0NT       0.062700
     46 H19         -3.4870    -4.6250    -1.6950 hc         1 0NT       0.062700
     47 H20         -5.1410    -3.0610    -0.6570 h1         1 0NT       0.075700
     48 H21         -3.1480    -0.8140    -1.4770 hc         1 0NT       0.062700
     49 H22         -4.7690    -0.5870    -0.7000 hc         1 0NT       0.062700
     50 H23         -2.9290    -0.4750     0.9650 h1         1 0NT       0.062200
     51 H24         -4.1000    -1.8290     1.3040 h1         1 0NT       0.062200
     52 H25         -3.2840    -1.8900    -3.8930 h5         1 0NT       0.070800
     53 H26         -7.1250    -3.5340    -0.0560 ha         1 0NT       0.151000
     54 H28         -9.7940    -4.0880    -0.0540 h4         1 0NT       0.169000
     55 H27        -10.6540    -3.7400    -2.4130 hn         1 0NT       0.310700
     56 H29         -7.8290    -2.3330    -6.0920 h4         1 0NT       0.038100
@<TRIPOS>BOND
     1     1     4 1   
     2     1     9 1   
     3     1    29 1   
     4     1    30 1   
     5     2     5 1   
     6     2     6 1   
     7     2     7 1   
     8     2    31 1   
     9     3     9 1   
    10     3    10 2   
    11     3    11 1   
    12     4     8 1   
    13     4    32 1   
    14     4    33 1   
    15     5    34 1   
    16     5    35 1   
    17     5    36 1   
    18     6    37 1   
    19     6    38 1   
    20     6    39 1   
    21     7     8 1   
    22     7     9 1   
    23     8    40 1   
    24     8    41 1   
    25     9    42 1   
    26    11    12 1   
    27    11    16 1   
    28    12    13 1   
    29    12    43 1   
    30    12    44 1   
    31    13    14 1   
    32    13    45 1   
    33    13    46 1   
    34    14    15 1   
    35    14    17 1   
    36    14    47 1   
    37    15    16 1   
    38    15    48 1   
    39    15    49 1   
    40    16    50 1   
    41    16    51 1   
    42    17    18 1   
    43    17    21 1   
    44    18    19 2   
    45    18    52 1   
    46    19    20 1   
    47    20    21 ar  
    48    20    28 ar  
    49    21    22 ar  
    50    22    23 1   
    51    22    26 ar  
    52    23    24 2   
    53    23    53 1   
    54    24    25 1   
    55    24    54 1   
    56    25    26 1   
    57    25    55 1   
    58    26    27 ar  
    59    27    28 ar  
    60    28    56 1   
@<TRIPOS>SUBSTRUCTURE
     1 0NT         1 TEMP              0 ****  ****    0 ROOT
