@<TRIPOS>MOLECULE
0NU
   39    42     1     0     0
SMALL
bcc


@<TRIPOS>ATOM
      1 N5          -0.7970    -1.2750     2.4250 n1         1 0NU      -0.336800
      2 C15         -0.3910    -0.9010     1.4030 c1         1 0NU       0.213700
      3 C14          0.0960    -0.4290     0.1280 c3         1 0NU      -0.085300
      4 C13          1.5940    -0.6650    -0.0240 c          1 0NU       0.653100
      5 O            2.2390    -1.2830     0.8410 o          1 0NU      -0.566100
      6 N4           2.2420    -0.0970    -1.1240 n          1 0NU      -0.456800
      7 C11          1.5360     0.3000    -2.3220 c3         1 0NU       0.078000
      8 C10          1.7270    -0.6690    -3.4910 c3         1 0NU      -0.105400
      9 C9           3.1960    -0.9150    -3.7580 c3         1 0NU      -0.095400
     10 C12          3.6470    -0.3760    -1.3320 c3         1 0NU       0.063000
     11 C8           3.9000    -1.4050    -2.4800 c3         1 0NU       0.034000
     12 N3           5.3040    -1.6450    -2.6760 na         1 0NU      -0.154300
     13 C4           5.9950    -2.8430    -2.4870 ca         1 0NU       0.002800
     14 C3           5.6560    -4.1240    -2.0400 ca         1 0NU      -0.193100
     15 C            4.4870    -4.8110    -1.5690 cc         1 0NU      -0.174200
     16 C7           6.2610    -0.7130    -3.1530 cc         1 0NU       0.390700
     17 N2           7.4900    -1.2320    -3.2760 nd         1 0NU      -0.535100
     18 C5           7.3700    -2.5720    -2.8680 ca         1 0NU      -0.089900
     19 C6           8.3390    -3.6110    -2.7880 ca         1 0NU       0.484200
     20 N1           8.0590    -4.8410    -2.3760 nb         1 0NU      -0.683000
     21 C2           6.7520    -5.0850    -2.0120 ca         1 0NU       0.422800
     22 N            6.2290    -6.2980    -1.5440 na         1 0NU      -0.271100
     23 C1           4.8720    -6.1200    -1.2760 cd         1 0NU      -0.114100
     24 H14         -0.1280     0.6710     0.0380 hc         1 0NU       0.095200
     25 H15         -0.4490    -0.9750    -0.6940 hc         1 0NU       0.095200
     26 H11          0.4370     0.4200    -2.1190 h1         1 0NU       0.055700
     27 H10          1.9380     1.3120    -2.6240 h1         1 0NU       0.055700
     28 H8           1.2490    -0.2250    -4.4020 hc         1 0NU       0.056200
     29 H9           1.2100    -1.6400    -3.2750 hc         1 0NU       0.056200
     30 H6           3.3070    -1.6790    -4.5710 hc         1 0NU       0.058200
     31 H7           3.6770     0.0340    -4.1150 hc         1 0NU       0.058200
     32 H13          4.0990    -0.7660    -0.3760 h1         1 0NU       0.081200
     33 H12          4.1490     0.5980    -1.5980 h1         1 0NU       0.081200
     34 H1           3.4370    -2.3930    -2.1760 h1         1 0NU       0.084700
     35 H2           3.4920    -4.3950    -1.4450 ha         1 0NU       0.154000
     36 H5           5.9820     0.3220    -3.3840 h5         1 0NU       0.067800
     37 H4           9.3880    -3.4170    -3.0760 h4         1 0NU       0.038100
     38 H            6.7490    -7.1240    -1.4050 hn         1 0NU       0.310700
     39 H3           4.2720    -6.9470    -0.8910 h4         1 0NU       0.170000
@<TRIPOS>BOND
     1     1     2 3   
     2     2     3 1   
     3     3     4 1   
     4     3    24 1   
     5     3    25 1   
     6     4     5 2   
     7     4     6 1   
     8     6     7 1   
     9     6    10 1   
    10     7     8 1   
    11     7    26 1   
    12     7    27 1   
    13     8     9 1   
    14     8    28 1   
    15     8    29 1   
    16     9    11 1   
    17     9    30 1   
    18     9    31 1   
    19    10    11 1   
    20    10    32 1   
    21    10    33 1   
    22    11    12 1   
    23    11    34 1   
    24    12    13 1   
    25    12    16 1   
    26    13    14 ar  
    27    13    18 ar  
    28    14    15 1   
    29    14    21 ar  
    30    15    23 2   
    31    15    35 1   
    32    16    17 2   
    33    16    36 1   
    34    17    18 1   
    35    18    19 ar  
    36    19    20 ar  
    37    19    37 1   
    38    20    21 ar  
    39    21    22 1   
    40    22    23 1   
    41    22    38 1   
    42    23    39 1   
@<TRIPOS>SUBSTRUCTURE
     1 0NU         1 TEMP              0 ****  ****    0 ROOT
