@<TRIPOS>MOLECULE
0NU
   39    42     1     0     0
SMALL
bcc


@<TRIPOS>ATOM
      1 N5          -0.8670     0.0180     2.4590 n1         1 0NU      -0.354800
      2 C15         -0.4910    -0.0010     1.3880 c1         1 0NU       0.196700
      3 C14          0.0000     0.0000     0.0000 c3         1 0NU       0.045700
      4 C13          1.5070     0.0000     0.0000 c          1 0NU       0.578100
      5 O            2.1130     0.0000     1.0510 o          1 0NU      -0.616100
      6 N4           2.1820     0.0000    -1.1660 n          1 0NU      -0.153800
      7 C11          1.4610    -0.0000    -2.4470 c3         1 0NU       0.039000
      8 C10          1.9710    -1.1680    -3.2980 c3         1 0NU      -0.034400
      9 C9           3.4920    -1.0700    -3.4330 c3         1 0NU      -0.042400
     10 C12          3.6510     0.0060    -1.1820 c3         1 0NU       0.040000
     11 C8           4.1350    -1.1660    -2.0480 c3         1 0NU      -0.087000
     12 N3           5.5920    -1.1040    -2.1830 na         1 0NU       0.332700
     13 C4           6.4880    -2.0660    -1.7870 ca         1 0NU      -0.190200
     14 C3           6.3980    -3.3230    -1.1760 ca         1 0NU      -0.202100
     15 C            5.2950    -4.1560    -0.6950 cc         1 0NU      -0.164200
     16 C7           6.3080    -0.0830    -2.7340 cc         1 0NU       0.219700
     17 N2           7.5800    -0.3590    -2.6910 nd         1 0NU      -0.482100
     18 C5           7.7620    -1.5750    -2.1160 ca         1 0NU      -0.089900
     19 C6           8.8850    -2.3550    -1.8170 ca         1 0NU       0.486200
     20 N1           8.7610    -3.5280    -1.2400 nb         1 0NU      -0.585000
     21 C2           7.5760    -4.0430    -0.9160 ca         1 0NU       0.225800
     22 N            7.2020    -5.2240    -0.3190 na         1 0NU       0.287900
     23 C1           5.8400    -5.2770    -0.1970 cd         1 0NU      -0.275100
     24 H14         -0.3610    -0.8840    -0.5110 hc         1 0NU       0.042200
     25 H15         -0.3610     0.8850    -0.5100 hc         1 0NU       0.042200
     26 H11          0.4000    -0.1210    -2.2660 h1         1 0NU       0.027700
     27 H10          1.6430     0.9330    -2.9660 h1         1 0NU       0.027700
     28 H8           1.7110    -2.1040    -2.8190 hc         1 0NU       0.027200
     29 H9           1.5180    -1.1210    -4.2810 hc         1 0NU       0.027200
     30 H6           3.8510    -1.8830    -4.0530 hc         1 0NU       0.032200
     31 H7           3.7530    -0.1210    -3.8860 hc         1 0NU       0.032200
     32 H13          4.0250    -0.1090    -0.1720 h1         1 0NU       0.049700
     33 H12          4.0050     0.9390    -1.6040 h1         1 0NU       0.049700
     34 H1           3.8490    -2.1010    -1.5820 h1         1 0NU       0.069700
     35 H2           4.2390    -3.9150    -0.7360 ha         1 0NU       0.124000
     36 H5           5.8820     0.8230    -3.1450 h5         1 0NU       0.029800
     37 H4           9.8720    -1.9850    -2.0670 h4         1 0NU      -0.014900
     38 H            7.8330    -5.9410    -0.0200 hn         1 0NU       0.117700
     39 H3           5.2850    -6.1000     0.2360 h4         1 0NU       0.143000
@<TRIPOS>BOND
     1     1     2 3   
     2     2     3 1   
     3     3     4 1   
     4     3    24 1   
     5     3    25 1   
     6     4     5 2   
     7     4     6 1   
     8     6     7 1   
     9     6    10 1   
    10     7     8 1   
    11     7    26 1   
    12     7    27 1   
    13     8     9 1   
    14     8    28 1   
    15     8    29 1   
    16     9    11 1   
    17     9    30 1   
    18     9    31 1   
    19    10    11 1   
    20    10    32 1   
    21    10    33 1   
    22    11    12 1   
    23    11    34 1   
    24    12    13 1   
    25    12    16 1   
    26    13    14 ar  
    27    13    18 ar  
    28    14    15 1   
    29    14    21 ar  
    30    15    23 2   
    31    15    35 1   
    32    16    17 2   
    33    16    36 1   
    34    17    18 1   
    35    18    19 ar  
    36    19    20 ar  
    37    19    37 1   
    38    20    21 ar  
    39    21    22 1   
    40    22    23 1   
    41    22    38 1   
    42    23    39 1   
@<TRIPOS>SUBSTRUCTURE
     1 0NU         1 TEMP              0 ****  ****    0 ROOT
