@<TRIPOS>MOLECULE
molecule
   46    50     1     0     0
SMALL
bcc


@<TRIPOS>ATOM
      1 C1           0.0000     0.0000     0.0000 c3         1 0NV      -0.091900
      2 C2           1.5300     0.0000     0.0000 c3         1 0NV       0.162300
      3 N3           2.0220     0.0000     1.3840 n3         1 0NV      -0.727600
      4 C4           1.5880    -1.2060     2.1010 c3         1 0NV       0.162300
      5 C5           0.0600    -1.2420     2.1640 c3         1 0NV      -0.091900
      6 C6          -0.5050    -1.2410     0.7420 c3         1 0NV       0.052000
      7 N7          -1.9700    -1.2170     0.7960 na         1 0NV      -0.135300
      8 C8          -2.7380    -0.2520     1.3740 cc         1 0NV       0.408700
      9 N9          -3.9980    -0.5470     1.2370 nd         1 0NV      -0.583100
     10 C10         -4.1190    -1.7190     0.5640 ca         1 0NV      -0.068900
     11 C11         -5.2050    -2.4950     0.1410 ca         1 0NV       0.514200
     12 N12         -5.0210    -3.6150    -0.5210 nb         1 0NV      -0.720000
     13 C13         -3.8100    -4.0740    -0.8240 ca         1 0NV       0.464800
     14 N14         -3.3760    -5.1940    -1.4930 na         1 0NV      -0.266100
     15 C15         -2.0080    -5.2100    -1.5430 cc         1 0NV      -0.107100
     16 C16         -1.5180    -4.1250    -0.9210 cd         1 0NV      -0.196200
     17 C17         -2.6650    -3.3570    -0.4380 ca         1 0NV      -0.217100
     18 C18         -2.8180    -2.1570     0.2700 ca         1 0NV      -0.029200
     19 C19          3.4840     0.1390     1.4230 c3         1 0NV       0.210100
     20 C20          3.9270     0.3810     2.8430 ca         1 0NV      -0.084300
     21 C21          4.0170     1.6720     3.3280 ca         1 0NV      -0.117000
     22 C22          4.4240     1.8940     4.6310 ca         1 0NV      -0.128500
     23 C23          4.7400     0.8250     5.4470 ca         1 0NV      -0.125000
     24 C24          4.6490    -0.4670     4.9630 ca         1 0NV      -0.128500
     25 C25          4.2390    -0.6890     3.6610 ca         1 0NV      -0.117000
     26 H1          -0.3610    -0.0190    -1.0210 hc         1 0NV       0.061950
     27 H2          -0.3600     0.8910     0.5000 hc         1 0NV       0.061950
     28 H3           1.8890     0.8860    -0.5090 h1         1 0NV       0.040950
     29 H4           1.8890    -0.8860    -0.5090 h1         1 0NV       0.040950
     30 H6           1.9900    -1.1900     3.1070 h1         1 0NV       0.040950
     31 H7           1.9470    -2.0840     1.5770 h1         1 0NV       0.040950
     32 H8          -0.3000    -0.3690     2.6960 hc         1 0NV       0.061950
     33 H9          -0.2580    -2.1420     2.6780 hc         1 0NV       0.061950
     34 H10         -0.1730    -2.1310     0.2220 h1         1 0NV       0.076700
     35 H11         -2.3580     0.6310     1.8740 h5         1 0NV       0.077800
     36 H12         -6.2130    -2.1660     0.3630 h4         1 0NV       0.037100
     37 H13         -1.4110    -5.9820    -2.0130 h4         1 0NV       0.168000
     38 H14         -0.4720    -3.8690    -0.8010 ha         1 0NV       0.147000
     39 H16          3.9430    -0.7690     1.0510 h1         1 0NV       0.041200
     40 H17          3.7840     0.9760     0.8040 h1         1 0NV       0.041200
     41 H18          3.7700     2.5110     2.6880 ha         1 0NV       0.130500
     42 H19          4.4950     2.9060     5.0120 ha         1 0NV       0.130500
     43 H20          5.0600     0.9990     6.4670 ha         1 0NV       0.130000
     44 H21          4.8950    -1.3050     5.6040 ha         1 0NV       0.130500
     45 H22          4.1670    -1.7010     3.2820 ha         1 0NV       0.130500
     46 H5          -3.9730    -5.8940    -1.8860 hn         1 0NV       0.305700
@<TRIPOS>BOND
     1    14    15 1
     2    14    13 1
     3    12    13 ar
     4    12    11 ar
     5    15    16 2
     6    13    17 ar
     7    11    10 ar
     8    16    17 1
     9    17    18 ar
    10    10    18 ar
    11    10     9 1
    12    18     7 1
    13     9     8 2
    14     7     8 1
    15     7     6 1
    16     6     1 1
    17     6     5 1
    18     1     2 1
    19     2     3 1
    20     5     4 1
    21     4     3 1
    22    21    22 ar
    23    21    20 ar
    24     3    19 1
    25    22    23 ar
    26    19    20 1
    27    20    25 ar
    28    23    24 ar
    29    25    24 ar
    30     1    26 1
    31     1    27 1
    32     2    28 1
    33     2    29 1
    34     4    30 1
    35     4    31 1
    36     5    32 1
    37     5    33 1
    38     6    34 1
    39     8    35 1
    40    11    36 1
    41    15    37 1
    42    16    38 1
    43    19    39 1
    44    19    40 1
    45    21    41 1
    46    22    42 1
    47    23    43 1
    48    24    44 1
    49    25    45 1
    50    14    46 1
@<TRIPOS>SUBSTRUCTURE
     1 0NV         1 TEMP              0 ****  ****    0 ROOT
