@<TRIPOS>MOLECULE
0NV
   46    50     1     0     0
SMALL
bcc


@<TRIPOS>ATOM
      1 C1           0.1450    -0.0010    -0.1950 c3         1 0NV      -0.092400
      2 C2           1.6690     0.0500    -0.2660 c3         1 0NV       0.167800
      3 N3           2.3110    -0.2080     1.0160 n3         1 0NV      -0.731600
      4 C4           1.8680    -1.4590     1.6180 c3         1 0NV       0.167800
      5 C5           0.3500    -1.5590     1.7440 c3         1 0NV      -0.092400
      6 C6          -0.3080    -1.3590     0.3680 c3         1 0NV       0.056000
      7 N7          -1.7430    -1.4940     0.4120 na         1 0NV      -0.151300
      8 C8          -2.6430    -0.6820     1.1460 cc         1 0NV       0.395700
      9 N9          -3.9260    -1.0460     1.0000 nd         1 0NV      -0.542100
     10 C10         -3.9010    -2.1510     0.1330 ca         1 0NV      -0.088900
     11 C11         -4.9560    -2.9550    -0.3810 ca         1 0NV       0.484200
     12 N12         -4.7610    -3.9790    -1.2030 nb         1 0NV      -0.685000
     13 C13         -3.4550    -4.2450    -1.5530 ca         1 0NV       0.421800
     14 N14         -3.0120    -5.2690    -2.4030 na         1 0NV      -0.272100
     15 C15         -1.6240    -5.1960    -2.4970 cc         1 0NV      -0.118100
     16 C16         -1.1410    -4.1400    -1.7230 cd         1 0NV      -0.178200
     17 C17         -2.2770    -3.5130    -1.1090 ca         1 0NV      -0.193100
     18 C18         -2.5280    -2.4420    -0.2430 ca         1 0NV      -0.003200
     19 C19          3.7660    -0.1330     0.9430 c3         1 0NV       0.216100
     20 C20          4.2910     1.2120     0.5360 ca         1 0NV      -0.091300
     21 C21          5.2430     1.3050    -0.4850 ca         1 0NV      -0.117500
     22 C22          5.7780     2.5450    -0.8340 ca         1 0NV      -0.133000
     23 C23          5.3630     3.6980    -0.1680 ca         1 0NV      -0.127000
     24 C24          4.4120     3.6090     0.8490 ca         1 0NV      -0.133000
     25 C25          3.8780     2.3710     1.2020 ca         1 0NV      -0.117500
     26 H1          -0.2610     0.1480    -1.2290 hc         1 0NV       0.060700
     27 H2          -0.2390     0.8290     0.4510 hc         1 0NV       0.060700
     28 H3           2.0150    -0.6800    -1.0570 h1         1 0NV       0.038450
     29 H4           1.9790     1.0830    -0.5940 h1         1 0NV       0.038450
     30 H6           2.3120    -1.5160     2.6520 h1         1 0NV       0.038450
     31 H7           2.2400    -2.3550     1.0380 h1         1 0NV       0.038450
     32 H8           0.0960    -2.5690     2.1550 hc         1 0NV       0.060700
     33 H9          -0.0280    -0.7870     2.4630 hc         1 0NV       0.060700
     34 H10          0.0720    -2.1710    -0.3250 h1         1 0NV       0.073700
     35 H11         -2.2830     0.1530     1.7580 h5         1 0NV       0.070800
     36 H12         -6.0040    -2.7430    -0.1010 h4         1 0NV       0.037100
     37 H13         -1.0740    -5.9080    -3.1140 h4         1 0NV       0.168000
     38 H14         -0.1000    -3.8530    -1.6120 ha         1 0NV       0.152000
     39 H16          4.1640    -0.3580     1.9760 h1         1 0NV       0.040200
     40 H17          4.1820    -0.9200     0.2430 h1         1 0NV       0.040200
     41 H18          5.5740     0.3990    -1.0150 ha         1 0NV       0.137500
     42 H19          6.5280     2.6110    -1.6350 ha         1 0NV       0.132500
     43 H20          5.7850     4.6750    -0.4450 ha         1 0NV       0.132000
     44 H21          4.0830     4.5170     1.3750 ha         1 0NV       0.132500
     45 H22          3.1290     2.3010     2.0050 ha         1 0NV       0.137500
     46 H5          -3.5950    -5.9250    -2.8530 hn         1 0NV       0.309700
@<TRIPOS>BOND
     1     1     2 1   
     2     1     6 1   
     3     1    26 1   
     4     1    27 1   
     5     2     3 1   
     6     2    28 1   
     7     2    29 1   
     8     3     4 1   
     9     3    19 1   
    10     4     5 1   
    11     4    30 1   
    12     4    31 1   
    13     5     6 1   
    14     5    32 1   
    15     5    33 1   
    16     6     7 1   
    17     6    34 1   
    18     7     8 1   
    19     7    18 1   
    20     8     9 2   
    21     8    35 1   
    22     9    10 1   
    23    10    11 ar  
    24    10    18 ar  
    25    11    12 ar  
    26    11    36 1   
    27    12    13 ar  
    28    13    14 1   
    29    13    17 ar  
    30    14    15 1   
    31    14    46 1   
    32    15    16 2   
    33    15    37 1   
    34    16    17 1   
    35    16    38 1   
    36    17    18 ar  
    37    19    20 1   
    38    19    39 1   
    39    19    40 1   
    40    20    21 ar  
    41    20    25 ar  
    42    21    22 ar  
    43    21    41 1   
    44    22    23 ar  
    45    22    42 1   
    46    23    24 ar  
    47    23    43 1   
    48    24    25 ar  
    49    24    44 1   
    50    25    45 1   
@<TRIPOS>SUBSTRUCTURE
     1 0NV         1 TEMP              0 ****  ****    0 ROOT
