@<TRIPOS>MOLECULE
0NV
   46    50     1     0     0
SMALL
bcc


@<TRIPOS>ATOM
      1 C1           0.0000     0.0000     0.0000 c3         1 0NV      -0.038400
      2 C2           1.5300     0.0000     0.0000 c3         1 0NV       0.150800
      3 N3           2.0220     0.0000     1.3840 n3         1 0NV      -0.536600
      4 C4           1.5880    -1.2060     2.1010 c3         1 0NV       0.150800
      5 C5           0.0600    -1.2420     2.1640 c3         1 0NV      -0.038400
      6 C6          -0.5050    -1.2410     0.7420 c3         1 0NV      -0.075000
      7 N7          -1.9700    -1.2170     0.7960 na         1 0NV       0.338700
      8 C8          -2.7380    -0.2520     1.3740 cc         1 0NV       0.225700
      9 N9          -3.9980    -0.5470     1.2370 nd         1 0NV      -0.491100
     10 C10         -4.1190    -1.7190     0.5640 ca         1 0NV      -0.090900
     11 C11         -5.2050    -2.4950     0.1410 ca         1 0NV       0.486200
     12 N12         -5.0210    -3.6150    -0.5210 nb         1 0NV      -0.589000
     13 C13         -3.8100    -4.0740    -0.8240 ca         1 0NV       0.223800
     14 N14         -3.3760    -5.1940    -1.4930 na         1 0NV       0.285900
     15 C15         -2.0080    -5.2100    -1.5430 cc         1 0NV      -0.280100
     16 C16         -1.5180    -4.1250    -0.9210 cd         1 0NV      -0.166200
     17 C17         -2.6650    -3.3570    -0.4380 ca         1 0NV      -0.200100
     18 C18         -2.8180    -2.1570     0.2700 ca         1 0NV      -0.196200
     19 C19          3.4840     0.1390     1.4230 c3         1 0NV       0.214100
     20 C20          3.9270     0.3810     2.8430 ca         1 0NV      -0.095300
     21 C21          4.0170     1.6720     3.3280 ca         1 0NV      -0.091000
     22 C22          4.4240     1.8940     4.6310 ca         1 0NV      -0.100000
     23 C23          4.7400     0.8250     5.4470 ca         1 0NV      -0.098000
     24 C24          4.6490    -0.4670     4.9630 ca         1 0NV      -0.100000
     25 C25          4.2390    -0.6890     3.6610 ca         1 0NV      -0.091000
     26 H1          -0.3610    -0.0190    -1.0210 hc         1 0NV       0.032450
     27 H2          -0.3600     0.8910     0.5000 hc         1 0NV       0.032450
     28 H3           1.8890     0.8860    -0.5090 h1         1 0NV       0.016450
     29 H4           1.8890    -0.8860    -0.5090 h1         1 0NV       0.016450
     30 H6           1.9900    -1.1900     3.1070 h1         1 0NV       0.016450
     31 H7           1.9470    -2.0840     1.5770 h1         1 0NV       0.016450
     32 H8          -0.3000    -0.3690     2.6960 hc         1 0NV       0.032450
     33 H9          -0.2580    -2.1420     2.6780 hc         1 0NV       0.032450
     34 H10         -0.1730    -2.1310     0.2220 h1         1 0NV       0.058700
     35 H11         -2.3580     0.6310     1.8740 h5         1 0NV       0.033800
     36 H12         -6.2130    -2.1660     0.3630 h4         1 0NV      -0.015900
     37 H13         -1.4110    -5.9820    -2.0130 h4         1 0NV       0.141000
     38 H14         -0.4720    -3.8690    -0.8010 ha         1 0NV       0.124000
     39 H16          3.9430    -0.7690     1.0510 h1         1 0NV       0.012700
     40 H17          3.7840     0.9760     0.8040 h1         1 0NV       0.012700
     41 H18          3.7700     2.5110     2.6880 ha         1 0NV       0.106500
     42 H19          4.4950     2.9060     5.0120 ha         1 0NV       0.103500
     43 H20          5.0600     0.9990     6.4670 ha         1 0NV       0.103000
     44 H21          4.8950    -1.3050     5.6040 ha         1 0NV       0.103500
     45 H22          4.1670    -1.7010     3.2820 ha         1 0NV       0.106500
     46 H5          -3.9730    -5.8940    -1.8860 hn         1 0NV       0.116700
@<TRIPOS>BOND
     1     1     2 1   
     2     1     6 1   
     3     1    26 1   
     4     1    27 1   
     5     2     3 1   
     6     2    28 1   
     7     2    29 1   
     8     3     4 1   
     9     3    19 1   
    10     4     5 1   
    11     4    30 1   
    12     4    31 1   
    13     5     6 1   
    14     5    32 1   
    15     5    33 1   
    16     6     7 1   
    17     6    34 1   
    18     7     8 1   
    19     7    18 1   
    20     8     9 2   
    21     8    35 1   
    22     9    10 1   
    23    10    11 ar  
    24    10    18 ar  
    25    11    12 ar  
    26    11    36 1   
    27    12    13 ar  
    28    13    14 1   
    29    13    17 ar  
    30    14    15 1   
    31    14    46 1   
    32    15    16 2   
    33    15    37 1   
    34    16    17 1   
    35    16    38 1   
    36    17    18 ar  
    37    19    20 1   
    38    19    39 1   
    39    19    40 1   
    40    20    21 ar  
    41    20    25 ar  
    42    21    22 ar  
    43    21    41 1   
    44    22    23 ar  
    45    22    42 1   
    46    23    24 ar  
    47    23    43 1   
    48    24    25 ar  
    49    24    44 1   
    50    25    45 1   
@<TRIPOS>SUBSTRUCTURE
     1 0NV         1 TEMP              0 ****  ****    0 ROOT
