@<TRIPOS>MOLECULE
0NY
   45    47     1     0     0
SMALL
bcc


@<TRIPOS>ATOM
      1 C1          -0.0590    -0.2760    -0.1470 ca         1 0NY       0.435600
      2 C2           1.3450    -0.0060    -0.0390 ca         1 0NY      -0.304600
      3 C3           1.9160    -0.0290     1.3150 ca         1 0NY       0.710200
      4 N1           1.1350    -0.2900     2.3910 nb         1 0NY      -0.793000
      5 C4          -0.1900    -0.5470     2.1390 ca         1 0NY       0.677900
      6 N2          -0.8260    -0.5600     0.9710 nb         1 0NY      -0.725000
      7 C5           0.1230     0.0060    -2.5760 ca         1 0NY       0.128100
      8 C6           1.5040     0.2720    -2.4460 ca         1 0NY      -0.191000
      9 C7           2.0940     0.2630    -1.2020 ca         1 0NY      -0.073000
     10 C8          -0.6630    -0.2450    -1.4450 ca         1 0NY       0.018800
     11 O1          -2.0240    -0.3460    -1.6420 os         1 0NY      -0.312900
     12 C9          -2.6320    -1.5470    -1.1610 c3         1 0NY       0.124700
     13 O2          -0.5360    -0.0380    -3.7860 os         1 0NY      -0.301900
     14 C10          0.1750     0.4760    -4.9080 c3         1 0NY       0.109700
     15 N3           3.2850     0.1570     1.4720 nu         1 0NY      -0.845900
     16 C11          3.8890     0.3280     2.7850 c3         1 0NY       0.227500
     17 C12          4.1410    -1.0050     3.4930 c3         1 0NY      -0.100100
     18 C13          5.2360     1.0760     2.6960 c3         1 0NY      -0.033100
     19 C14          5.1060     2.3970     2.0500 cc         1 0NY      -0.127600
     20 N4           5.9940     2.8910     1.0790 na         1 0NY      -0.019600
     21 N5           5.6830     4.1200     0.6790 nc         1 0NY      -0.511800
     22 C15          4.5510     4.4830     1.3570 cd         1 0NY       0.308600
     23 C16          4.1520     3.4100     2.2450 cd         1 0NY      -0.284300
     24 C17          3.8470     5.7680     1.2030 c3         1 0NY      -0.122400
     25 H1          -0.7970    -0.7660     3.0440 h5         1 0NY       0.050100
     26 H2           2.1100     0.4790    -3.3400 ha         1 0NY       0.143000
     27 H3           3.1740     0.4660    -1.1470 ha         1 0NY       0.131000
     28 H4          -3.1130    -1.3290    -0.1760 h1         1 0NY       0.043367
     29 H5          -1.9010    -2.3820    -1.0650 h1         1 0NY       0.043367
     30 H6          -3.4080    -1.7900    -1.9320 h1         1 0NY       0.043367
     31 H7           1.0350    -0.1890    -5.1630 h1         1 0NY       0.046033
     32 H8          -0.5910     0.4600    -5.7250 h1         1 0NY       0.046033
     33 H9           0.5260     1.5190    -4.7170 h1         1 0NY       0.046033
     34 H10          3.7320     0.6660     0.7410 hn         1 0NY       0.427800
     35 H11          3.2010     0.9480     3.4400 h1         1 0NY       0.067700
     36 H12          4.5910    -0.8020     4.4940 hc         1 0NY       0.048033
     37 H13          3.1860    -1.5640     3.6390 hc         1 0NY       0.048033
     38 H14          4.8420    -1.6450     2.9050 hc         1 0NY       0.048033
     39 H15          5.6080     1.2230     3.7480 hc         1 0NY       0.066200
     40 H16          5.9860     0.4330     2.1630 hc         1 0NY       0.066200
     41 H17          6.8290     2.4560     0.7640 hn         1 0NY       0.318700
     42 H18          3.2960     3.4020     2.9090 ha         1 0NY       0.170000
     43 H19          3.4790     5.8940     0.1540 hc         1 0NY       0.051033
     44 H20          4.5270     6.6240     1.4420 hc         1 0NY       0.051033
     45 H21          2.9710     5.8010     1.8970 hc         1 0NY       0.051033
@<TRIPOS>BOND
     1     1     2 ar  
     2     1     6 ar  
     3     1    10 ar  
     4     2     3 ar  
     5     2     9 ar  
     6     3     4 ar  
     7     3    15 1   
     8     4     5 ar  
     9     5     6 ar  
    10     5    25 1   
    11     7     8 ar  
    12     7    10 ar  
    13     7    13 1   
    14     8     9 ar  
    15     8    26 1   
    16     9    27 1   
    17    10    11 1   
    18    11    12 1   
    19    12    28 1   
    20    12    29 1   
    21    12    30 1   
    22    13    14 1   
    23    14    31 1   
    24    14    32 1   
    25    14    33 1   
    26    15    16 1   
    27    15    34 1   
    28    16    17 1   
    29    16    18 1   
    30    16    35 1   
    31    17    36 1   
    32    17    37 1   
    33    17    38 1   
    34    18    19 1   
    35    18    39 1   
    36    18    40 1   
    37    19    20 1   
    38    19    23 2   
    39    20    21 1   
    40    20    41 1   
    41    21    22 2   
    42    22    23 1   
    43    22    24 1   
    44    23    42 1   
    45    24    43 1   
    46    24    44 1   
    47    24    45 1   
@<TRIPOS>SUBSTRUCTURE
     1 0NY         1 TEMP              0 ****  ****    0 ROOT
