@<TRIPOS>MOLECULE
molecule
   45    47     1     0     0
SMALL
bcc


@<TRIPOS>ATOM
      1 C1           0.0000     0.0000     0.0000 ca         1 0NY       0.488600
      2 C2           1.4160     0.0000     0.0000 ca         1 0NY      -0.347600
      3 C3           2.0830     0.0000     1.2490 ca         1 0NY       0.759200
      4 N1           1.3480     0.0020     2.3530 nb         1 0NY      -0.845000
      5 C4           0.0250     0.0020     2.3030 ca         1 0NY       0.733900
      6 N2          -0.6460     0.0010     1.1760 nb         1 0NY      -0.765000
      7 C5           0.0320    -0.0140    -2.4050 ca         1 0NY       0.146100
      8 C6           1.4270    -0.0040    -2.3900 ca         1 0NY      -0.219000
      9 C7           2.1140    -0.0020    -1.2130 ca         1 0NY      -0.058000
     10 C8          -0.6880    -0.0070    -1.2240 ca         1 0NY       0.014800
     11 O1          -2.0470    -0.0160    -1.2480 os         1 0NY      -0.315900
     12 C9          -2.6870    -1.2940    -1.2460 c3         1 0NY       0.139700
     13 O2          -0.6280    -0.0150    -3.5940 os         1 0NY      -0.308900
     14 C10          0.1690    -0.0050    -4.7780 c3         1 0NY       0.124700
     15 N3           3.4600    -0.0000     1.3160 nu         1 0NY      -0.889900
     16 C11          4.1310     0.0010     2.6180 c3         1 0NY       0.243500
     17 C12          4.2510    -1.4360     3.1320 c3         1 0NY      -0.111100
     18 C13          5.5270     0.6100     2.4730 c3         1 0NY      -0.032100
     19 C14          5.4050     2.0610     2.0870 cc         1 0NY      -0.073600
     20 N4           5.4230     3.1130     2.9310 na         1 0NY      -0.038600
     21 N5           5.2830     4.2800     2.1690 nd         1 0NY      -0.507800
     22 C15          5.1830     3.9370     0.9100 cc         1 0NY       0.346600
     23 C16          5.2630     2.5420     0.8300 cc         1 0NY      -0.344300
     24 C17          5.0220     4.8800    -0.2530 c3         1 0NY      -0.111400
     25 H1          -0.5270     0.0040     3.2350 h5         1 0NY       0.056100
     26 H2           1.9710    -0.0100    -3.3260 ha         1 0NY       0.139000
     27 H3           3.1970     0.0060    -1.2170 ha         1 0NY       0.123000
     28 H4          -3.2930    -1.3960    -2.1380 h1         1 0NY       0.034033
     29 H5          -1.9360    -2.0740    -1.2290 h1         1 0NY       0.034033
     30 H6          -3.3180    -1.3810    -0.3690 h1         1 0NY       0.034033
     31 H7           0.7860     0.8860    -4.7910 h1         1 0NY       0.042700
     32 H8           0.8030    -0.8830    -4.7940 h1         1 0NY       0.042700
     33 H9          -0.4760    -0.0100    -5.6480 h1         1 0NY       0.042700
     34 H10          4.0020    -0.0390     0.4750 hn         1 0NY       0.448800
     35 H11          3.5530     0.5880     3.3210 h1         1 0NY       0.089700
     36 H12          4.8090    -2.0290     2.4170 hc         1 0NY       0.045367
     37 H13          3.2610    -1.8580     3.2570 hc         1 0NY       0.045367
     38 H14          4.7670    -1.4370     4.0840 hc         1 0NY       0.045367
     39 H15          6.0550     0.5300     3.4160 hc         1 0NY       0.062700
     40 H16          6.0750     0.0770     1.7060 hc         1 0NY       0.062700
     41 H17          5.5200     3.0680     3.9260 hn         1 0NY       0.328700
     42 H18          5.2130     1.9510    -0.0770 ha         1 0NY       0.144000
     43 H19          3.9980     4.8470    -0.6060 hc         1 0NY       0.050700
     44 H20          5.6890     4.5840    -1.0530 hc         1 0NY       0.050700
     45 H21          5.2620     5.8880     0.0640 hc         1 0NY       0.050700
@<TRIPOS>BOND
     1    12    11 1   
     2    11    10 1   
     3    13    14 1   
     4    13     7 1   
     5    10     7 ar  
     6    10     1 ar  
     7     7     8 ar  
     8     6     1 ar  
     9     6     5 ar  
    10     1     2 ar  
    11     8     9 ar  
    12     5     4 ar  
    13     2     9 ar  
    14     2     3 ar  
    15    24    22 1   
    16     4     3 ar  
    17     3    15 1   
    18    22    23 1   
    19    22    21 2   
    20    23    19 2   
    21    15    16 1   
    22    21    20 1   
    23    19    20 1   
    24    19    18 1   
    25    16    18 1   
    26    16    17 1   
    27     5    25 1   
    28     8    26 1   
    29     9    27 1   
    30    12    28 1   
    31    12    29 1   
    32    12    30 1   
    33    14    31 1   
    34    14    32 1   
    35    14    33 1   
    36    15    34 1   
    37    16    35 1   
    38    17    36 1   
    39    17    37 1   
    40    17    38 1   
    41    18    39 1   
    42    18    40 1   
    43    20    41 1   
    44    23    42 1   
    45    24    43 1   
    46    24    44 1   
    47    24    45 1   
@<TRIPOS>SUBSTRUCTURE
     1 0NY         1 TEMP              0 ****  ****    0 ROOT
