@<TRIPOS>MOLECULE
0O1
   66    70     1     0     0
SMALL
bcc


@<TRIPOS>ATOM
      1 C1          -0.1230     0.0740     0.0060 c3         1 0O1       0.108800
      2 N1           1.3530     0.3150    -0.0080 ny         1 0O1      -0.764000
      3 C2           1.9510     0.4180     1.3550 c3         1 0O1       0.098800
      4 C3           1.6290     1.7260     2.0860 c3         1 0O1      -0.038100
      5 C4           2.5960     1.9050     3.2050 ca         1 0O1      -0.043300
      6 C5           2.2820     1.6180     4.5630 ca         1 0O1       0.118400
      7 N2           0.9800     1.2340     4.9100 nc         1 0O1      -0.581100
      8 C6           0.7150     1.0260     6.1890 cd         1 0O1       0.519800
      9 N3           1.6130     1.0980     7.2540 ns         1 0O1      -0.505400
     10 C7           2.9640     1.4540     6.9780 c          1 0O1       0.719100
     11 C8           3.2930     1.7470     5.5680 ca         1 0O1      -0.135600
     12 C9           4.5950     2.1510     5.2880 ca         1 0O1      -0.030000
     13 C10          4.9130     2.4790     3.9660 ca         1 0O1       0.176400
     14 C11          3.8820     2.3680     2.9370 ca         1 0O1      -0.111200
     15 N4           4.4940     2.7170     1.7080 na         1 0O1      -0.293300
     16 C12          5.8500     3.1210     2.0790 cc         1 0O1       0.685700
     17 N5           6.1120     2.9280     3.4240 nd         1 0O1      -0.607100
     18 N6           6.7480     3.5910     1.1680 nu         1 0O1      -0.796200
     19 C13          6.4260     3.7700    -0.2260 c3         1 0O1       0.209800
     20 O1           3.7390     1.4910     7.9360 o          1 0O1      -0.512500
     21 C14         -0.7080     0.0220    -1.4020 c3         1 0O1      -0.104700
     22 N7          -0.7060     0.6760     6.5340 nz         1 0O1      -0.800600
     23 C15          7.6110     4.2950    -1.0460 c3         1 0O1      -0.043100
     24 C16          7.1910     4.4760    -2.4620 ca         1 0O1      -0.113300
     25 C17          6.1250     5.8130    -4.1770 ca         1 0O1      -0.124000
     26 C18          6.4920     5.6260    -2.8450 ca         1 0O1      -0.125000
     27 C19          6.4550     4.8530    -5.1340 ca         1 0O1      -0.113000
     28 C20          7.5210     3.5160    -3.4250 ca         1 0O1      -0.125000
     29 C21          7.1540     3.7060    -4.7570 ca         1 0O1      -0.124000
     30 C22         -2.2150    -0.2470    -1.3320 c3         1 0O1      -0.081400
     31 C23         -0.5380     1.3350    -2.1650 c3         1 0O1      -0.081400
     32 C24         -2.8550     0.5670    -2.4490 c3         1 0O1      -0.080400
     33 C25         -1.8000     1.5170    -2.9990 c3         1 0O1      -0.080400
     34 H1          -0.5980     0.9080     0.5960 hx         1 0O1       0.100700
     35 H2          -0.3110    -0.9040     0.5340 hx         1 0O1       0.100700
     36 H3           1.8080    -0.4590    -0.5100 hn         1 0O1       0.456300
     37 H5           1.5810    -0.4570     1.9630 hx         1 0O1       0.114700
     38 H6           3.0720     0.3200     1.2350 hx         1 0O1       0.114700
     39 H7           1.7130     2.6020     1.3830 hc         1 0O1       0.074200
     40 H8           0.5690     1.7080     2.4500 hc         1 0O1       0.074200
     41 H9           1.3520     0.9240     8.2010 hn         1 0O1       0.359500
     42 H10          5.3520     2.2200     6.0920 ha         1 0O1       0.209000
     43 H11          3.9940     3.2700     1.0490 hn         1 0O1       0.282700
     44 H13          7.6890     3.7420     1.4730 hn         1 0O1       0.490800
     45 H14          6.0900     2.7850    -0.6630 h1         1 0O1       0.046700
     46 H15          5.5730     4.5040    -0.3160 h1         1 0O1       0.046700
     47 H16         -0.2220    -0.8110    -1.9820 hc         1 0O1       0.078700
     48 H17         -1.0850     1.3890     7.1710 hn         1 0O1       0.482133
     49 H18         -1.2800     0.6490     5.6810 hn         1 0O1       0.482133
     50 H19          8.4690     3.5730    -0.9860 hc         1 0O1       0.072700
     51 H20          7.9630     5.2760    -0.6280 hc         1 0O1       0.072700
     52 H21          5.5890     6.7260    -4.4760 ha         1 0O1       0.145500
     53 H22          6.2500     6.3960    -2.0970 ha         1 0O1       0.133000
     54 H23          6.1780     5.0080    -6.1890 ha         1 0O1       0.148000
     55 H24          8.0900     2.6190    -3.1370 ha         1 0O1       0.133000
     56 H25          7.4300     2.9550    -5.5140 ha         1 0O1       0.145500
     57 H26         -2.6280     0.0630    -0.3390 hc         1 0O1       0.048200
     58 H27         -2.4220    -1.3390    -1.4590 hc         1 0O1       0.048200
     59 H28         -0.4240     2.1950    -1.4560 hc         1 0O1       0.048200
     60 H29          0.3690     1.3060    -2.8190 hc         1 0O1       0.048200
     61 H30         -3.7380     1.1350    -2.0590 hc         1 0O1       0.070700
     62 H31         -3.2300    -0.1100    -3.2590 hc         1 0O1       0.070700
     63 H32         -2.1520     2.5780    -2.9520 hc         1 0O1       0.070700
     64 H33         -1.5910     1.2850    -4.0750 hc         1 0O1       0.070700
     65 H73         -0.7330    -0.2450     6.9900 hn         1 0O1       0.482133
     66 H12          1.5340     1.1800    -0.5340 hn         1 0O1       0.456300
@<TRIPOS>BOND
     1     1     2 1   
     2     1    21 1   
     3     1    34 1   
     4     1    35 1   
     5     2     3 1   
     6     2    36 1   
     7     2    66 1   
     8     3     4 1   
     9     3    37 1   
    10     3    38 1   
    11     4     5 1   
    12     4    39 1   
    13     4    40 1   
    14     5     6 ar  
    15     5    14 ar  
    16     6     7 1   
    17     6    11 ar  
    18     7     8 2   
    19     8     9 1   
    20     8    22 1   
    21     9    10 1   
    22     9    41 1   
    23    10    11 1   
    24    10    20 2   
    25    11    12 ar  
    26    12    13 ar  
    27    12    42 1   
    28    13    14 ar  
    29    13    17 1   
    30    14    15 1   
    31    15    16 1   
    32    15    43 1   
    33    16    17 2   
    34    16    18 1   
    35    18    19 1   
    36    18    44 1   
    37    19    23 1   
    38    19    45 1   
    39    19    46 1   
    40    21    30 1   
    41    21    31 1   
    42    21    47 1   
    43    22    48 1   
    44    22    49 1   
    45    22    65 1   
    46    23    24 1   
    47    23    50 1   
    48    23    51 1   
    49    24    26 ar  
    50    24    28 ar  
    51    25    26 ar  
    52    25    27 ar  
    53    25    52 1   
    54    26    53 1   
    55    27    29 ar  
    56    27    54 1   
    57    28    29 ar  
    58    28    55 1   
    59    29    56 1   
    60    30    32 1   
    61    30    57 1   
    62    30    58 1   
    63    31    33 1   
    64    31    59 1   
    65    31    60 1   
    66    32    33 1   
    67    32    61 1   
    68    32    62 1   
    69    33    63 1   
    70    33    64 1   
@<TRIPOS>SUBSTRUCTURE
     1 0O1         1 TEMP              0 ****  ****    0 ROOT
