@<TRIPOS>MOLECULE
molecule
   65    69     1     0     0
SMALL
bcc


@<TRIPOS>ATOM
      1 C1           0.0000     0.0000     0.0000 c3         1 0O1       0.162800
      2 N1           1.4690     0.0000     0.0000 n7         1 0O1      -0.818200
      3 C2           1.9950     0.0000     1.3710 c3         1 0O1       0.161800
      4 C3           3.5250     0.0010     1.3300 c3         1 0O1      -0.044100
      5 C4           4.0650     0.0010     2.7370 ca         1 0O1       0.011700
      6 C5           4.3170    -1.2030     3.3900 ca         1 0O1       0.101400
      7 N2           4.0850    -2.3950     2.7820 nc         1 0O1      -0.537100
      8 C6           4.3190    -3.5290     3.3890 cd         1 0O1       0.418800
      9 N3           4.8080    -3.6070     4.6620 ns         1 0O1      -0.487400
     10 C7           5.0770    -2.4840     5.3670 c          1 0O1       0.724100
     11 C8           4.8250    -1.1930     4.7120 ca         1 0O1      -0.162600
     12 C9           5.0730     0.0120     5.3620 ca         1 0O1      -0.022000
     13 C10          4.8200     1.2100     4.7020 ca         1 0O1       0.179400
     14 C11          4.3200     1.1980     3.3820 ca         1 0O1      -0.089200
     15 N4           4.1770     2.5240     3.0150 na         1 0O1      -0.289300
     16 C12          4.5780     3.2870     4.0770 cc         1 0O1       0.720700
     17 N5           4.9590     2.5160     5.0630 nd         1 0O1      -0.660100
     18 N6           4.5840     4.6650     4.1030 nu         1 0O1      -0.855200
     19 C13          4.1370     5.4220     2.9310 c3         1 0O1       0.224800
     20 O1           5.5120    -2.5410     6.5030 o          1 0O1      -0.557500
     21 C14         -0.5100    -0.0000    -1.4420 c3         1 0O1      -0.075700
     22 N7           4.0610    -4.6980     2.7160 nz         1 0O1      -0.725600
     23 C15          4.2430     6.9210     3.2210 c3         1 0O1      -0.043100
     24 C16          3.7840     7.6990     2.0160 ca         1 0O1      -0.103300
     25 C17          2.0330     8.7680     0.7810 ca         1 0O1      -0.122000
     26 C18          2.4540     8.0540     1.8870 ca         1 0O1      -0.121000
     27 C19          2.9410     9.1290    -0.1960 ca         1 0O1      -0.118000
     28 C20          4.6940     8.0640     1.0410 ca         1 0O1      -0.121000
     29 C21          4.2720     8.7790    -0.0650 ca         1 0O1      -0.122000
     30 C22         -2.0440    -0.1280    -1.4590 c3         1 0O1      -0.074900
     31 C23         -0.1710     1.3420    -2.1230 c3         1 0O1      -0.074900
     32 C24         -2.5840     1.1420    -2.1490 c3         1 0O1      -0.084900
     33 C25         -1.4010     1.6340    -3.0190 c3         1 0O1      -0.084900
     34 H1          -0.3610    -0.8840     0.5110 h1         1 0O1       0.034700
     35 H2          -0.3610     0.8850     0.5110 h1         1 0O1       0.034700
     36 H3           1.8030    -0.8090    -0.4850 hn         1 0O1       0.349800
     37 H5           1.6490    -0.8850     1.8910 h1         1 0O1       0.035200
     38 H6           1.6470     0.8840     1.8920 h1         1 0O1       0.035200
     39 H7           3.8730    -0.8830     0.8100 hc         1 0O1       0.065200
     40 H8           3.8720     0.8860     0.8100 hc         1 0O1       0.065200
     41 H9           4.9680    -4.5030     5.0780 hn         1 0O1       0.337500
     42 H10          5.5850     0.0180     6.3160 ha         1 0O1       0.186000
     43 H11          3.8390     2.8630     2.1360 hn         1 0O1       0.321700
     44 H13          4.9220     5.1490     4.9120 hn         1 0O1       0.485800
     45 H14          3.1080     5.1680     2.7080 h1         1 0O1       0.047700
     46 H15          4.7620     5.1740     2.0810 h1         1 0O1       0.047700
     47 H16         -0.0660    -0.8180    -1.9970 hc         1 0O1       0.046700
     48 H17          3.5010    -5.2970     3.2900 hn         1 0O1       0.470467
     49 H18          4.9240    -5.1550     2.4990 hn         1 0O1       0.470467
     50 H19          3.6180     7.1690     4.0710 hc         1 0O1       0.063200
     51 H20          5.2720     7.1740     3.4440 hc         1 0O1       0.063200
     52 H21          0.9910     9.0480     0.6820 ha         1 0O1       0.138000
     53 H22          1.7470     7.7980     2.6670 ha         1 0O1       0.131000
     54 H23          2.6110     9.6900    -1.0610 ha         1 0O1       0.139000
     55 H24          5.7430     7.8210     1.1600 ha         1 0O1       0.131000
     56 H25          4.9730     9.0900    -0.8310 ha         1 0O1       0.138000
     57 H26         -2.3360    -1.0070    -2.0210 hc         1 0O1       0.045950
     58 H27         -2.4210    -0.1870    -0.4450 hc         1 0O1       0.045950
     59 H28         -0.0510     2.1220    -1.3810 hc         1 0O1       0.045950
     60 H29          0.7220     1.2430    -2.7280 hc         1 0O1       0.045950
     61 H30         -2.8460     1.8910    -1.4110 hc         1 0O1       0.048450
     62 H31         -3.4360     0.9000    -2.7730 hc         1 0O1       0.048450
     63 H32         -1.3440     1.0680    -3.9420 hc         1 0O1       0.048450
     64 H33         -1.4860     2.6960    -3.2160 hc         1 0O1       0.048450
     65 H73          3.5710    -4.4930     1.8670 hn         1 0O1       0.470467
@<TRIPOS>BOND
     1    27    29 ar  
     2    27    25 ar  
     3    29    28 ar  
     4    25    26 ar  
     5    28    24 ar  
     6    26    24 ar  
     7    24    23 1   
     8    23    19 1   
     9    19    18 1   
    10    33    31 1   
    11    33    32 1   
    12    18    16 1   
    13    31    21 1   
    14    32    30 1   
    15    21    30 1   
    16    21     1 1   
    17    16    15 1   
    18    16    17 2   
    19     2     1 1   
    20     2     3 1   
    21    15    14 1   
    22    17    13 1   
    23     3     4 1   
    24    14    13 ar  
    25    14     5 ar  
    26     4     5 1   
    27    13    12 ar  
    28     5     6 ar  
    29    12    11 ar  
    30     6    11 ar  
    31     6     7 1   
    32    11    10 1   
    33     7     8 2   
    34    10    20 2   
    35    10     9 1   
    36     8     9 1   
    37     8    22 1   
    38     1    34 1   
    39     1    35 1   
    40     2    36 1   
    41     3    37 1   
    42     3    38 1   
    43     4    39 1   
    44     4    40 1   
    45     9    41 1   
    46    12    42 1   
    47    15    43 1   
    48    18    44 1   
    49    19    45 1   
    50    19    46 1   
    51    21    47 1   
    52    22    48 1   
    53    22    49 1   
    54    23    50 1   
    55    23    51 1   
    56    25    52 1   
    57    26    53 1   
    58    27    54 1   
    59    28    55 1   
    60    29    56 1   
    61    30    57 1   
    62    30    58 1   
    63    31    59 1   
    64    31    60 1   
    65    32    61 1   
    66    32    62 1   
    67    33    63 1   
    68    33    64 1   
    69    65    22 1   
@<TRIPOS>SUBSTRUCTURE
     1 0O1         1 TEMP              0 ****  ****    0 ROOT
