@<TRIPOS>MOLECULE
0O3
   24    23     1     0     0
SMALL
bcc


@<TRIPOS>ATOM
      1 O20          0.0000     0.0000     0.0000 o          1 0O3      -0.786167
      2 P17          1.6100     0.0000     0.0000 p5         1 0O3       0.740900
      3 O19          2.1030     0.0000     1.3950 o          1 0O3      -0.786167
      4 O18          2.1470    -1.3150    -0.7590 o          1 0O3      -0.786167
      5 O16          2.1460     1.3140    -0.7590 os         1 0O3      -0.446800
      6 P13          3.5730     2.0550    -0.8400 p5         1 0O3       0.876800
      7 O15          4.5180     1.2850    -1.8930 o          1 0O3      -0.705500
      8 O14          4.2110     2.0430     0.4940 o          1 0O3      -0.705500
      9 O29          3.3620     3.5770    -1.3210 os         1 0O3      -0.495200
     10 C28          4.4290     4.5260    -1.3920 c3         1 0O3       0.309400
     11 C27          3.8840     5.8680    -1.8840 c3         1 0O3      -0.014200
     12 C30          5.0080     6.8690    -1.9580 c2         1 0O3      -0.111400
     13 C1           5.6370     7.0640    -3.0910 c2         1 0O3      -0.228000
     14 C13          5.4080     7.6460    -0.7310 c3         1 0O3       0.266600
     15 O3           6.4890     8.5240    -1.0540 oh         1 0O3      -0.608800
     16 H4           5.1850     4.1690    -2.0800 h1         1 0O3      -0.032300
     17 H5           4.8650     4.6520    -0.4080 h1         1 0O3      -0.032300
     18 H6           3.4470     5.7420    -2.8670 hc         1 0O3       0.010200
     19 H7           3.1270     6.2250    -1.1960 hc         1 0O3       0.010200
     20 H8           5.3490     6.5050    -3.9730 ha         1 0O3       0.083000
     21 H9           6.4450     7.7830    -3.1450 ha         1 0O3       0.083000
     22 H10          5.7210     6.9580     0.0450 h1         1 0O3      -0.003300
     23 H11          4.5640     8.2270    -0.3800 h1         1 0O3      -0.003300
     24 H12          6.7230     9.0270    -0.2920 ho         1 0O3       0.365000
@<TRIPOS>BOND
     1     1     2 1   
     2     2     3 1   
     3     2     4 1   
     4     2     5 1   
     5     5     6 1   
     6     6     7 1   
     7     6     8 1   
     8     6     9 1   
     9     9    10 1   
    10    10    11 1   
    11    10    16 1   
    12    10    17 1   
    13    11    12 1   
    14    11    18 1   
    15    11    19 1   
    16    12    13 2   
    17    12    14 1   
    18    13    20 1   
    19    13    21 1   
    20    14    15 1   
    21    14    22 1   
    22    14    23 1   
    23    15    24 1   
@<TRIPOS>SUBSTRUCTURE
     1 0O3         1 TEMP              0 ****  ****    0 ROOT
