@<TRIPOS>MOLECULE
0O3
   24    23     1     0     0
SMALL
bcc


@<TRIPOS>ATOM
      1 O20          0.5030     0.9690    -0.9690 o          1 0O3      -0.959167
      2 P17          1.5770     0.3840    -0.0830 p5         1 0O3       1.479900
      3 O19          1.2920     0.3800     1.3900 o          1 0O3      -0.959167
      4 O18          2.9370     0.9110    -0.4900 o          1 0O3      -0.959167
      5 O16          1.6520    -1.2830    -0.5700 os         1 0O3      -0.827800
      6 P13          1.7740    -2.7680    -1.0840 p5         1 0O3       1.580800
      7 O15          0.6610    -3.6670    -0.6710 o          1 0O3      -0.921000
      8 O14          3.1590    -3.3140    -1.0180 o          1 0O3      -0.921000
      9 O29          1.5070    -2.5410    -2.7360 os         1 0O3      -0.595200
     10 C28          2.2370    -1.5360    -3.3470 c3         1 0O3       0.234400
     11 C27          1.3390    -0.3430    -3.6980 c3         1 0O3      -0.143200
     12 C30          2.1000     0.7910    -4.2810 c2         1 0O3      -0.010400
     13 C1           2.1860     1.0100    -5.6010 c2         1 0O3      -0.360000
     14 C13          2.6930     1.7500    -3.2800 c3         1 0O3       0.139600
     15 O3           4.0410     1.4390    -2.9960 oh         1 0O3      -0.684800
     16 H4           3.0860    -1.1980    -2.6880 h1         1 0O3      -0.004300
     17 H5           2.6730    -1.9480    -4.3080 h1         1 0O3      -0.004300
     18 H6           0.8410     0.0090    -2.7270 hc         1 0O3       0.087200
     19 H7           0.5410    -0.6860    -4.4050 hc         1 0O3       0.087200
     20 H8           2.7310     1.8630    -6.0190 ha         1 0O3       0.062500
     21 H9           1.7300     0.3430    -6.3400 ha         1 0O3       0.062500
     22 H10          2.0780     1.7160    -2.3140 h1         1 0O3       0.064200
     23 H11          2.6980     2.7880    -3.7170 h1         1 0O3       0.064200
     24 H12          4.0350     1.0240    -2.1040 ho         1 0O3       0.488000
@<TRIPOS>BOND
     1     1     2 1   
     2     2     3 1   
     3     2     4 1   
     4     2     5 1   
     5     5     6 1   
     6     6     7 1   
     7     6     8 1   
     8     6     9 1   
     9     9    10 1   
    10    10    11 1   
    11    10    16 1   
    12    10    17 1   
    13    11    12 1   
    14    11    18 1   
    15    11    19 1   
    16    12    13 2   
    17    12    14 1   
    18    13    20 1   
    19    13    21 1   
    20    14    15 1   
    21    14    22 1   
    22    14    23 1   
    23    15    24 1   
@<TRIPOS>SUBSTRUCTURE
     1 0O3         1 TEMP              0 ****  ****    0 ROOT
