@<TRIPOS>MOLECULE
0O4
   51    54     1     0     0
SMALL
bcc


@<TRIPOS>ATOM
      1 O1           1.5430     2.7570     0.9680 o          1 0O4      -0.418100
      2 C2           2.1750     1.7460     0.7020 c          1 0O4       0.581700
      3 N3           2.4900     0.8700     1.9110 ny         1 0O4      -0.680800
      4 C4           1.3740    -0.0870     2.1650 c3         1 0O4       0.090800
      5 C5           1.6350    -0.9560     3.4230 c3         1 0O4       0.168800
      6 N6           0.5370    -1.8820     3.6000 n3         1 0O4      -0.745600
      7 C11          0.9660    -3.2390     3.9210 c3         1 0O4       0.135300
      8 C10         -0.2220    -4.1880     4.1300 c3         1 0O4       0.125900
      9 O9          -1.1430    -3.6640     5.0760 os         1 0O4      -0.396600
     10 C8          -1.6410    -2.3910     4.6870 c3         1 0O4       0.125900
     11 C7          -0.4980    -1.3830     4.4980 c3         1 0O4       0.135300
     12 C12          2.6320     1.2500    -0.5920 ca         1 0O4      -0.210600
     13 C13          1.7940     1.4780    -1.6980 ca         1 0O4      -0.071500
     14 C17          3.8660     0.6040    -0.7670 ca         1 0O4      -0.071500
     15 C16          4.2450     0.1690    -2.0310 ca         1 0O4      -0.107000
     16 C15          3.3990     0.3700    -3.1330 cp         1 0O4      -0.044500
     17 C14          2.1740     1.0260    -2.9590 ca         1 0O4      -0.107000
     18 C18          3.7800    -0.1410    -4.4680 cp         1 0O4       0.426800
     19 N19          2.9540    -1.0250    -5.0380 nb         1 0O4      -0.644000
     20 C20          3.2950    -1.5260    -6.2590 ca         1 0O4       0.379200
     21 C27          4.9930     0.3210    -5.0880 ca         1 0O4      -0.132300
     22 C26          5.8530     1.2920    -4.5110 ca         1 0O4      -0.129000
     23 C25          6.9930     1.6910    -5.1640 ca         1 0O4      -0.107000
     24 C22          5.3230    -0.2200    -6.3620 ca         1 0O4      -0.017000
     25 C21          4.4440    -1.1690    -6.9450 ca         1 0O4      -0.192300
     26 C23          6.5130     0.2080    -7.0140 ca         1 0O4      -0.111000
     27 C24          7.3290     1.1410    -6.4260 ca         1 0O4      -0.106000
     28 H1           2.6120     1.4670     2.7380 hn         1 0O4       0.452800
     29 H2           0.4300     0.5150     2.2970 hx         1 0O4       0.117200
     30 H3           1.2620    -0.7450     1.2560 hx         1 0O4       0.117200
     31 H4           2.6000    -1.5200     3.2780 h1         1 0O4       0.051200
     32 H5           1.7650    -0.2710     4.3120 h1         1 0O4       0.051200
     33 H7           1.5820    -3.6220     3.0600 h1         1 0O4       0.046700
     34 H8           1.6050    -3.2560     4.8510 h1         1 0O4       0.046700
     35 H9          -0.7450    -4.3880     3.1580 h1         1 0O4       0.068450
     36 H10          0.1340    -5.1500     4.5850 h1         1 0O4       0.068450
     37 H11         -2.2440    -2.4870     3.7470 h1         1 0O4       0.068450
     38 H12         -2.2960    -2.0710     5.5400 h1         1 0O4       0.068450
     39 H13         -0.0740    -1.1310     5.5130 h1         1 0O4       0.046700
     40 H14         -0.9200    -0.4410     4.0500 h1         1 0O4       0.046700
     41 H15          0.8380     2.0100    -1.5650 ha         1 0O4       0.147500
     42 H16          4.5650     0.4580     0.0710 ha         1 0O4       0.147500
     43 H17          5.2140    -0.3380    -2.1730 ha         1 0O4       0.176000
     44 H18          1.5050     1.1830    -3.8230 ha         1 0O4       0.176000
     45 H19          2.5740    -2.2560    -6.6730 h4         1 0O4       0.038100
     46 H20          5.5880     1.7280    -3.5360 ha         1 0O4       0.130000
     47 H21          7.6590     2.4460    -4.7180 ha         1 0O4       0.145000
     48 H22          4.6790    -1.6030    -7.9280 ha         1 0O4       0.160000
     49 H23          6.7590    -0.2230    -7.9970 ha         1 0O4       0.150000
     50 H24          8.2500     1.4780    -6.9270 ha         1 0O4       0.150000
     51 H32          3.3560     0.3480     1.7510 hn         1 0O4       0.452800
@<TRIPOS>BOND
     1     1     2 2   
     2     2     3 1   
     3     2    12 1   
     4     3     4 1   
     5     3    28 1   
     6     3    51 1   
     7     4     5 1   
     8     4    29 1   
     9     4    30 1   
    10     5     6 1   
    11     5    31 1   
    12     5    32 1   
    13     6     7 1   
    14     6    11 1   
    15     7     8 1   
    16     7    33 1   
    17     7    34 1   
    18     8     9 1   
    19     8    35 1   
    20     8    36 1   
    21     9    10 1   
    22    10    11 1   
    23    10    37 1   
    24    10    38 1   
    25    11    39 1   
    26    11    40 1   
    27    12    13 ar  
    28    12    14 ar  
    29    13    17 ar  
    30    13    41 1   
    31    14    15 ar  
    32    14    42 1   
    33    15    16 ar  
    34    15    43 1   
    35    16    17 ar  
    36    16    18 1   
    37    17    44 1   
    38    18    19 ar  
    39    18    21 ar  
    40    19    20 ar  
    41    20    25 ar  
    42    20    45 1   
    43    21    22 ar  
    44    21    24 ar  
    45    22    23 ar  
    46    22    46 1   
    47    23    27 ar  
    48    23    47 1   
    49    24    25 ar  
    50    24    26 ar  
    51    25    48 1   
    52    26    27 ar  
    53    26    49 1   
    54    27    50 1   
@<TRIPOS>SUBSTRUCTURE
     1 0O4         1 TEMP              0 ****  ****    0 ROOT
