@<TRIPOS>MOLECULE
0O4
   50    53     1     0     0
SMALL
bcc


@<TRIPOS>ATOM
      1 O1           0.0000     0.0000     0.0000 o          1 0O4      -0.647100
      2 C2           1.2150     0.0000     0.0000 c          1 0O4       0.596700
      3 N3           1.8890     0.0000     1.1680 ns         1 0O4      -0.201900
      4 C4           1.1560    -0.0010     2.4350 c3         1 0O4       0.041000
      5 C5           2.1500    -0.0000     3.5990 c3         1 0O4       0.141800
      6 N6           1.4150    -0.0010     4.8720 n3         1 0O4      -0.529600
      7 C11          2.3210    -0.2400     6.0030 c3         1 0O4       0.106300
      8 C10          1.5080    -0.2910     7.3000 c3         1 0O4       0.215400
      9 O9           0.7720     0.9260     7.4430 os         1 0O4      -0.412600
     10 C8          -0.1220     1.1900     6.3570 c3         1 0O4       0.215400
     11 C7           0.6750     1.2560     5.0530 c3         1 0O4       0.106300
     12 C12          1.9550    -0.0070    -1.2800 ca         1 0O4      -0.151600
     13 C13          3.3530    -0.0120    -1.2790 ca         1 0O4      -0.064000
     14 C17          1.2580    -0.0120    -2.4890 ca         1 0O4      -0.064000
     15 C16          1.9470    -0.0180    -3.6810 ca         1 0O4      -0.095000
     16 C15          3.3430    -0.0180    -3.6810 cp         1 0O4      -0.122500
     17 C14          4.0410    -0.0180    -2.4710 ca         1 0O4      -0.095000
     18 C18          4.0840    -0.0240    -4.9620 cp         1 0O4       0.450800
     19 N19          5.1160    -0.8320    -5.1290 nb         1 0O4      -0.572000
     20 C20          5.8130    -0.8780    -6.2520 ca         1 0O4       0.395200
     21 C27          3.6860     0.8300    -6.0180 ca         1 0O4      -0.139300
     22 C26          2.5950     1.7010    -5.8990 ca         1 0O4      -0.097000
     23 C25          2.2570     2.5010    -6.9490 ca         1 0O4      -0.098000
     24 C22          4.4200     0.7950    -7.2310 ca         1 0O4      -0.017000
     25 C21          5.5100    -0.0900    -7.3230 ca         1 0O4      -0.203300
     26 C23          4.0450     1.6310    -8.2910 ca         1 0O4      -0.092000
     27 C24          2.9780     2.4660    -8.1410 ca         1 0O4      -0.084000
     28 H1           2.8890    -0.0170     1.1680 hn         1 0O4       0.178500
     29 H2           0.5320     0.8830     2.4930 h1         1 0O4       0.035700
     30 H3           0.5340    -0.8860     2.4920 h1         1 0O4       0.035700
     31 H4           2.7730    -0.8840     3.5420 h1         1 0O4       0.010700
     32 H5           2.7720     0.8850     3.5420 h1         1 0O4       0.010700
     33 H7           3.0440     0.5660     6.0630 h1         1 0O4       0.019450
     34 H8           2.8340    -1.1830     5.8620 h1         1 0O4       0.019450
     35 H9           2.1800    -0.4070     8.1420 h1         1 0O4       0.013700
     36 H10          0.8200    -1.1270     7.2610 h1         1 0O4       0.013700
     37 H11         -0.6210     2.1370     6.5240 h1         1 0O4       0.013700
     38 H12         -0.8550     0.3950     6.2930 h1         1 0O4       0.013700
     39 H13         -0.0060     1.3970     4.2220 h1         1 0O4       0.019450
     40 H14          1.3730     2.0830     5.0980 h1         1 0O4       0.019450
     41 H15          3.8940    -0.0120    -0.3410 ha         1 0O4       0.115000
     42 H16          0.1740    -0.0120    -2.4900 ha         1 0O4       0.115000
     43 H17          1.4050    -0.0200    -4.6200 ha         1 0O4       0.120000
     44 H18          5.1240    -0.0200    -2.4710 ha         1 0O4       0.120000
     45 H19          6.6490    -1.5630    -6.3240 h4         1 0O4      -0.020900
     46 H20          2.0250     1.7390    -4.9780 ha         1 0O4       0.131000
     47 H21          1.4130     3.1740    -6.8560 ha         1 0O4       0.105000
     48 H22          6.0970    -0.1480    -8.2320 ha         1 0O4       0.116000
     49 H23          4.5970     1.6140    -9.2220 ha         1 0O4       0.110000
     50 H24          2.6870     3.1130    -8.9600 ha         1 0O4       0.103000
@<TRIPOS>BOND
     1     1     2 2   
     2     2     3 1   
     3     2    12 1   
     4     3     4 1   
     5     3    28 1   
     6     4     5 1   
     7     4    29 1   
     8     4    30 1   
     9     5     6 1   
    10     5    31 1   
    11     5    32 1   
    12     6     7 1   
    13     6    11 1   
    14     7     8 1   
    15     7    33 1   
    16     7    34 1   
    17     8     9 1   
    18     8    35 1   
    19     8    36 1   
    20     9    10 1   
    21    10    11 1   
    22    10    37 1   
    23    10    38 1   
    24    11    39 1   
    25    11    40 1   
    26    12    13 ar  
    27    12    14 ar  
    28    13    17 ar  
    29    13    41 1   
    30    14    15 ar  
    31    14    42 1   
    32    15    16 ar  
    33    15    43 1   
    34    16    17 ar  
    35    16    18 1   
    36    17    44 1   
    37    18    19 ar  
    38    18    21 ar  
    39    19    20 ar  
    40    20    25 ar  
    41    20    45 1   
    42    21    22 ar  
    43    21    24 ar  
    44    22    23 ar  
    45    22    46 1   
    46    23    27 ar  
    47    23    47 1   
    48    24    25 ar  
    49    24    26 ar  
    50    25    48 1   
    51    26    27 ar  
    52    26    49 1   
    53    27    50 1   
@<TRIPOS>SUBSTRUCTURE
     1 0O4         1 TEMP              0 ****  ****    0 ROOT
