@<TRIPOS>MOLECULE
molecule
   50    53     1     0     0
SMALL
bcc


@<TRIPOS>ATOM
      1 O1           0.0000     0.0000     0.0000 o          1 0O4      -0.605100
      2 C2           1.2150     0.0000     0.0000 c          1 0O4       0.673700
      3 N3           1.8890     0.0000     1.1680 ns         1 0O4      -0.586900
      4 C4           1.1560    -0.0010     2.4350 c3         1 0O4       0.111000
      5 C5           2.1500    -0.0000     3.5990 c3         1 0O4       0.144800
      6 N6           1.4150    -0.0010     4.8720 n3         1 0O4      -0.723600
      7 C11          2.3210    -0.2400     6.0030 c3         1 0O4       0.121300
      8 C10          1.5080    -0.2910     7.3000 c3         1 0O4       0.139900
      9 O9           0.7720     0.9260     7.4430 os         1 0O4      -0.424600
     10 C8          -0.1220     1.1900     6.3570 c3         1 0O4       0.139900
     11 C7           0.6750     1.2560     5.0530 c3         1 0O4       0.121300
     12 C12          1.9550    -0.0070    -1.2800 ca         1 0O4      -0.139600
     13 C13          3.3530    -0.0120    -1.2790 ca         1 0O4      -0.093000
     14 C17          1.2580    -0.0120    -2.4890 ca         1 0O4      -0.093000
     15 C16          1.9470    -0.0180    -3.6810 ca         1 0O4      -0.114500
     16 C15          3.3430    -0.0180    -3.6810 cp         1 0O4      -0.119500
     17 C14          4.0410    -0.0180    -2.4710 ca         1 0O4      -0.114500
     18 C18          4.0840    -0.0240    -4.9620 cp         1 0O4       0.495800
     19 N19          5.1160    -0.8320    -5.1290 nb         1 0O4      -0.688000
     20 C20          5.8130    -0.8780    -6.2520 ca         1 0O4       0.414200
     21 C27          3.6860     0.8300    -6.0180 ca         1 0O4      -0.150300
     22 C26          2.5950     1.7010    -5.8990 ca         1 0O4      -0.111000
     23 C25          2.2570     2.5010    -6.9490 ca         1 0O4      -0.129000
     24 C22          4.4200     0.7950    -7.2310 ca         1 0O4      -0.011000
     25 C21          5.5100    -0.0900    -7.3230 ca         1 0O4      -0.237300
     26 C23          4.0450     1.6310    -8.2910 ca         1 0O4      -0.123000
     27 C24          2.9780     2.4660    -8.1410 ca         1 0O4      -0.109000
     28 H1           2.8890    -0.0170     1.1680 hn         1 0O4       0.313500
     29 H2           0.5320     0.8830     2.4930 h1         1 0O4       0.062200
     30 H3           0.5340    -0.8860     2.4920 h1         1 0O4       0.062200
     31 H4           2.7730    -0.8840     3.5420 h1         1 0O4       0.037200
     32 H5           2.7720     0.8850     3.5420 h1         1 0O4       0.037200
     33 H7           3.0440     0.5660     6.0630 h1         1 0O4       0.044700
     34 H8           2.8340    -1.1830     5.8620 h1         1 0O4       0.044700
     35 H9           2.1800    -0.4070     8.1420 h1         1 0O4       0.055200
     36 H10          0.8200    -1.1270     7.2610 h1         1 0O4       0.055200
     37 H11         -0.6210     2.1370     6.5240 h1         1 0O4       0.055200
     38 H12         -0.8550     0.3950     6.2930 h1         1 0O4       0.055200
     39 H13         -0.0060     1.3970     4.2220 h1         1 0O4       0.044700
     40 H14          1.3730     2.0830     5.0980 h1         1 0O4       0.044700
     41 H15          3.8940    -0.0120    -0.3410 ha         1 0O4       0.143000
     42 H16          0.1740    -0.0120    -2.4900 ha         1 0O4       0.143000
     43 H17          1.4050    -0.0200    -4.6200 ha         1 0O4       0.147500
     44 H18          5.1240    -0.0200    -2.4710 ha         1 0O4       0.147500
     45 H19          6.6490    -1.5630    -6.3240 h4         1 0O4       0.022100
     46 H20          2.0250     1.7390    -4.9780 ha         1 0O4       0.149000
     47 H21          1.4130     3.1740    -6.8560 ha         1 0O4       0.133000
     48 H22          6.0970    -0.1480    -8.2320 ha         1 0O4       0.141000
     49 H23          4.5970     1.6140    -9.2220 ha         1 0O4       0.137000
     50 H24          2.6870     3.1130    -8.9600 ha         1 0O4       0.132000
@<TRIPOS>BOND
     1    23    27 ar  
     2    23    22 ar  
     3    27    26 ar  
     4    22    21 ar  
     5    26    24 ar  
     6    21    24 ar  
     7    21    18 ar  
     8    24    25 ar  
     9    13    17 ar  
    10    13    12 ar  
    11    17    16 ar  
    12     4     3 1   
    13     4     5 1   
    14    16    18 1   
    15    16    15 ar  
    16     3     2 1   
    17     2     1 2   
    18     2    12 1   
    19    12    14 ar  
    20    18    19 ar  
    21    14    15 ar  
    22    25    20 ar  
    23    11    10 1   
    24    11     6 1   
    25    19    20 ar  
    26     5     6 1   
    27    10     9 1   
    28     6     7 1   
    29     9     8 1   
    30     7     8 1   
    31     3    28 1   
    32     4    29 1   
    33     4    30 1   
    34     5    31 1   
    35     5    32 1   
    36     7    33 1   
    37     7    34 1   
    38     8    35 1   
    39     8    36 1   
    40    10    37 1   
    41    10    38 1   
    42    11    39 1   
    43    11    40 1   
    44    13    41 1   
    45    14    42 1   
    46    15    43 1   
    47    17    44 1   
    48    20    45 1   
    49    22    46 1   
    50    23    47 1   
    51    25    48 1   
    52    26    49 1   
    53    27    50 1   
@<TRIPOS>SUBSTRUCTURE
     1 0O4         1 TEMP              0 ****  ****    0 ROOT
