@<TRIPOS>MOLECULE
0O5
   54    57     1     0     0
SMALL
bcc


@<TRIPOS>ATOM
      1 O19          1.5070     3.0260     0.9340 o          1 0O5      -0.433100
      2 C18          2.2100     2.0480     0.7120 c          1 0O5       0.576700
      3 N20          2.6680     1.3360     1.9780 ny         1 0O5      -0.669800
      4 C21          1.9180     0.0670     2.1860 c3         1 0O5       0.041800
      5 C22          2.3500    -0.6610     3.4890 c3         1 0O5       0.179800
      6 N23          1.6650    -1.8860     3.7790 n3         1 0O5      -0.731600
      7 C28          0.2590    -1.7400     4.1230 c3         1 0O5       0.135800
      8 C24         -0.3960    -3.0810     4.4860 c3         1 0O5       0.125400
      9 O26         -0.1640    -4.0540     3.4750 os         1 0O5      -0.399600
     10 C25          1.2240    -4.2760     3.2620 c3         1 0O5       0.125400
     11 C27          1.9350    -2.9770     2.8550 c3         1 0O5       0.135800
     12 C13          2.6350     1.5020    -0.5700 ca         1 0O5      -0.210600
     13 C17          1.9870     2.0140    -1.7110 ca         1 0O5      -0.066000
     14 C14          2.3250     1.5430    -2.9770 ca         1 0O5      -0.111500
     15 C16          3.6350     0.5260    -0.7190 ca         1 0O5      -0.066000
     16 C15          3.9750     0.0680    -1.9850 ca         1 0O5      -0.111500
     17 C9           3.3210     0.5700    -3.1230 cp         1 0O5      -0.036500
     18 C4           3.6540     0.0450    -4.4650 cp         1 0O5       0.432800
     19 N6           2.6600    -0.5140    -5.1560 nb         1 0O5      -0.645000
     20 C2           2.9340    -1.0340    -6.3990 ca         1 0O5       0.402600
     21 C1           1.8090    -1.6640    -7.1550 c3         1 0O5      -0.149400
     22 C7           5.0020     0.1600    -4.9570 ca         1 0O5      -0.139300
     23 C12          6.0530     0.7950    -4.2450 ca         1 0O5      -0.127000
     24 C11          7.3130     0.8710    -4.7850 ca         1 0O5      -0.110000
     25 C10          7.5840     0.3170    -6.0610 ca         1 0O5      -0.106000
     26 C8           6.5850    -0.2950    -6.7760 ca         1 0O5      -0.112000
     27 C5           5.2690    -0.3830    -6.2420 ca         1 0O5      -0.012000
     28 C3           4.2070    -0.9900    -6.9590 ca         1 0O5      -0.200300
     29 H1           2.5040     1.9580     2.7820 hn         1 0O5       0.455300
     30 H2           2.1010    -0.5940     1.2910 hx         1 0O5       0.110700
     31 H3           0.8200     0.3200     2.2310 hx         1 0O5       0.110700
     32 H4           3.4520    -0.8930     3.4180 h1         1 0O5       0.068200
     33 H5           2.1840     0.0370     4.3600 h1         1 0O5       0.068200
     34 H7           0.1860    -1.0540     5.0130 h1         1 0O5       0.041950
     35 H8          -0.3260    -1.2800     3.2730 h1         1 0O5       0.041950
     36 H9          -1.5110    -2.9670     4.5190 h1         1 0O5       0.071700
     37 H10         -0.0130    -3.4530     5.4720 h1         1 0O5       0.071700
     38 H11          1.6900    -4.7080     4.1870 h1         1 0O5       0.071700
     39 H12          1.2660    -5.0170     2.4210 h1         1 0O5       0.071700
     40 H13          3.0450    -3.1650     2.8500 h1         1 0O5       0.041950
     41 H14          1.6160    -2.7150     1.8040 h1         1 0O5       0.041950
     42 H15          1.2070     2.7870    -1.5980 ha         1 0O5       0.148000
     43 H16          1.8000     1.9320    -3.8660 ha         1 0O5       0.176500
     44 H17          4.1730     0.1060     0.1440 ha         1 0O5       0.148000
     45 H18          4.7590    -0.6990    -2.1040 ha         1 0O5       0.176500
     46 H19          2.1750    -2.0540    -8.1360 hc         1 0O5       0.060700
     47 H20          1.3700    -2.5120    -6.5720 hc         1 0O5       0.060700
     48 H21          1.0000    -0.9150    -7.3470 hc         1 0O5       0.060700
     49 H22          5.8420     1.2370    -3.2600 ha         1 0O5       0.127000
     50 H23          8.1290     1.3670    -4.2360 ha         1 0O5       0.143000
     51 H24          8.6040     0.3900    -6.4690 ha         1 0O5       0.150000
     52 H25          6.7800    -0.7240    -7.7710 ha         1 0O5       0.150000
     53 H26          4.4000    -1.4180    -7.9540 ha         1 0O5       0.158000
     54 H202         3.6710     1.1390     1.9210 hn         1 0O5       0.455300
@<TRIPOS>BOND
     1     1     2 2   
     2     2     3 1   
     3     2    12 1   
     4     3     4 1   
     5     3    29 1   
     6     3    54 1   
     7     4     5 1   
     8     4    30 1   
     9     4    31 1   
    10     5     6 1   
    11     5    32 1   
    12     5    33 1   
    13     6     7 1   
    14     6    11 1   
    15     7     8 1   
    16     7    34 1   
    17     7    35 1   
    18     8     9 1   
    19     8    36 1   
    20     8    37 1   
    21     9    10 1   
    22    10    11 1   
    23    10    38 1   
    24    10    39 1   
    25    11    40 1   
    26    11    41 1   
    27    12    13 ar  
    28    12    15 ar  
    29    13    14 ar  
    30    13    42 1   
    31    14    17 ar  
    32    14    43 1   
    33    15    16 ar  
    34    15    44 1   
    35    16    17 ar  
    36    16    45 1   
    37    17    18 1   
    38    18    19 ar  
    39    18    22 ar  
    40    19    20 ar  
    41    20    21 1   
    42    20    28 ar  
    43    21    46 1   
    44    21    47 1   
    45    21    48 1   
    46    22    23 ar  
    47    22    27 ar  
    48    23    24 ar  
    49    23    49 1   
    50    24    25 ar  
    51    24    50 1   
    52    25    26 ar  
    53    25    51 1   
    54    26    27 ar  
    55    26    52 1   
    56    27    28 ar  
    57    28    53 1   
@<TRIPOS>SUBSTRUCTURE
     1 0O5         1 TEMP              0 ****  ****    0 ROOT
