@<TRIPOS>MOLECULE
molecule
   53    56     1     0     0
SMALL
bcc


@<TRIPOS>ATOM
      1 O19          0.0000     0.0000     0.0000 o          1 0O5      -0.606100
      2 C18          1.2160     0.0000     0.0000 c          1 0O5       0.673700
      3 N20          1.8900     0.0000     1.1670 ns         1 0O5      -0.586900
      4 C21          1.1580    -0.0000     2.4360 c3         1 0O5       0.111000
      5 C22          2.1520    -0.0000     3.5990 c3         1 0O5       0.144800
      6 N23          1.4180    -0.0010     4.8710 n3         1 0O5      -0.724600
      7 C28          2.3250    -0.2400     6.0020 c3         1 0O5       0.121800
      8 C24          1.5120    -0.2920     7.2990 c3         1 0O5       0.139400
      9 O26          0.7750     0.9250     7.4430 os         1 0O5      -0.424600
     10 C25         -0.1190     1.1880     6.3590 c3         1 0O5       0.139400
     11 C27          0.6760     1.2550     5.0520 c3         1 0O5       0.121800
     12 C13          1.9550    -0.0040    -1.2800 ca         1 0O5      -0.139600
     13 C17          3.3520    -0.0100    -1.2800 ca         1 0O5      -0.093000
     14 C14          4.0390    -0.0140    -2.4740 ca         1 0O5      -0.114500
     15 C16          1.2560    -0.0100    -2.4900 ca         1 0O5      -0.093000
     16 C15          1.9460    -0.0150    -3.6820 ca         1 0O5      -0.114500
     17 C9           3.3410    -0.0130    -3.6820 cp         1 0O5      -0.118500
     18 C4           4.0810    -0.0180    -4.9640 cp         1 0O5       0.499800
     19 N6           5.1130    -0.8280    -5.1330 nb         1 0O5      -0.688000
     20 C2           5.8090    -0.8730    -6.2570 ca         1 0O5       0.424600
     21 C1           6.9690    -1.8280    -6.3600 c3         1 0O5      -0.141400
     22 C7           3.6850     0.8400    -6.0160 ca         1 0O5      -0.154300
     23 C12          2.5980     1.7130    -5.8940 ca         1 0O5      -0.109000
     24 C11          2.2610     2.5180    -6.9410 ca         1 0O5      -0.131000
     25 C10          2.9830     2.4860    -8.1330 ca         1 0O5      -0.109000
     26 C8           4.0460     1.6480    -8.2870 ca         1 0O5      -0.124000
     27 C5           4.4200     0.8070    -7.2290 ca         1 0O5      -0.008000
     28 C3           5.5080    -0.0810    -7.3260 ca         1 0O5      -0.236300
     29 H1           2.8910    -0.0270     1.1660 hn         1 0O5       0.313500
     30 H2           0.5350     0.8840     2.4930 h1         1 0O5       0.062200
     31 H3           0.5350    -0.8850     2.4930 h1         1 0O5       0.062200
     32 H4           2.7740     0.8850     3.5420 h1         1 0O5       0.037200
     33 H5           2.7750    -0.8840     3.5410 h1         1 0O5       0.037200
     34 H7           3.0470     0.5660     6.0620 h1         1 0O5       0.044950
     35 H8           2.8390    -1.1830     5.8600 h1         1 0O5       0.044950
     36 H9           2.1830    -0.4090     8.1410 h1         1 0O5       0.054950
     37 H10          0.8240    -1.1280     7.2590 h1         1 0O5       0.054950
     38 H11         -0.8510     0.3920     6.2940 h1         1 0O5       0.054950
     39 H12         -0.6190     2.1340     6.5250 h1         1 0O5       0.054950
     40 H13          1.3740     2.0830     5.0970 h1         1 0O5       0.044950
     41 H14         -0.0050     1.3950     4.2220 h1         1 0O5       0.044950
     42 H15          3.8940    -0.0100    -0.3420 ha         1 0O5       0.143000
     43 H16          5.1230    -0.0150    -2.4740 ha         1 0O5       0.147500
     44 H17          0.1730    -0.0120    -2.4910 ha         1 0O5       0.143000
     45 H18          1.4050    -0.0170    -4.6210 ha         1 0O5       0.147500
     46 H19          6.8760    -2.4140    -7.2660 hc         1 0O5       0.052033
     47 H20          6.9700    -2.4880    -5.5010 hc         1 0O5       0.052033
     48 H21          7.8960    -1.2680    -6.3860 hc         1 0O5       0.052033
     49 H22          2.0280     1.7500    -4.9740 ha         1 0O5       0.148000
     50 H23          1.4200     3.1940    -6.8450 ha         1 0O5       0.133000
     51 H24          2.6940     3.1370    -8.9500 ha         1 0O5       0.132000
     52 H25          4.5990     1.6320    -9.2190 ha         1 0O5       0.137000
     53 H26          6.0930    -0.1370    -8.2360 ha         1 0O5       0.142000
@<TRIPOS>BOND
     1    21    20 1   
     2    20    19 ar  
     3    20    28 ar  
     4    19    18 ar  
     5    14    13 ar  
     6    14    17 ar  
     7    13    12 ar  
     8    28    27 ar  
     9     1     2 2   
    10    18    17 1   
    11    18    22 ar  
    12    17    16 ar  
    13    12     2 1   
    14    12    15 ar  
    15    27    22 ar  
    16    27    26 ar  
    17     2     3 1   
    18    22    23 ar  
    19    16    15 ar  
    20    26    25 ar  
    21     3     4 1   
    22    23    24 ar  
    23    11    10 1   
    24    11     6 1   
    25     4     5 1   
    26    25    24 ar  
    27    10     9 1   
    28     9     8 1   
    29     5     6 1   
    30     6     7 1   
    31     7     8 1   
    32     3    29 1   
    33     4    30 1   
    34     4    31 1   
    35     5    32 1   
    36     5    33 1   
    37     7    34 1   
    38     7    35 1   
    39     8    36 1   
    40     8    37 1   
    41    10    38 1   
    42    10    39 1   
    43    11    40 1   
    44    11    41 1   
    45    13    42 1   
    46    14    43 1   
    47    15    44 1   
    48    16    45 1   
    49    21    46 1   
    50    21    47 1   
    51    21    48 1   
    52    23    49 1   
    53    24    50 1   
    54    25    51 1   
    55    26    52 1   
    56    28    53 1   
@<TRIPOS>SUBSTRUCTURE
     1 0O5         1 TEMP              0 ****  ****    0 ROOT
