@<TRIPOS>MOLECULE
0O5
   53    56     1     0     0
SMALL
bcc


@<TRIPOS>ATOM
      1 O19          0.0000     0.0000     0.0000 o          1 0O5      -0.648100
      2 C18          1.2160     0.0000     0.0000 c          1 0O5       0.595700
      3 N20          1.8900     0.0000     1.1670 ns         1 0O5      -0.200900
      4 C21          1.1580    -0.0000     2.4360 c3         1 0O5       0.041000
      5 C22          2.1520    -0.0000     3.5990 c3         1 0O5       0.141800
      6 N23          1.4180    -0.0010     4.8710 n3         1 0O5      -0.529600
      7 C28          2.3250    -0.2400     6.0020 c3         1 0O5       0.106300
      8 C24          1.5120    -0.2920     7.2990 c3         1 0O5       0.215400
      9 O26          0.7750     0.9250     7.4430 os         1 0O5      -0.411600
     10 C25         -0.1190     1.1880     6.3590 c3         1 0O5       0.215400
     11 C27          0.6760     1.2550     5.0520 c3         1 0O5       0.106300
     12 C13          1.9550    -0.0040    -1.2800 ca         1 0O5      -0.151600
     13 C17          3.3520    -0.0100    -1.2800 ca         1 0O5      -0.064000
     14 C14          4.0390    -0.0140    -2.4740 ca         1 0O5      -0.095500
     15 C16          1.2560    -0.0100    -2.4900 ca         1 0O5      -0.064000
     16 C15          1.9460    -0.0150    -3.6820 ca         1 0O5      -0.095500
     17 C9           3.3410    -0.0130    -3.6820 cp         1 0O5      -0.121500
     18 C4           4.0810    -0.0180    -4.9640 cp         1 0O5       0.451800
     19 N6           5.1130    -0.8280    -5.1330 nb         1 0O5      -0.563000
     20 C2           5.8090    -0.8730    -6.2570 ca         1 0O5       0.368600
     21 C1           6.9690    -1.8280    -6.3600 c3         1 0O5      -0.041400
     22 C7           3.6850     0.8400    -6.0160 ca         1 0O5      -0.144300
     23 C12          2.5980     1.7130    -5.8940 ca         1 0O5      -0.095000
     24 C11          2.2610     2.5180    -6.9410 ca         1 0O5      -0.100000
     25 C10          2.9830     2.4860    -8.1330 ca         1 0O5      -0.083000
     26 C8           4.0460     1.6480    -8.2870 ca         1 0O5      -0.095000
     27 C5           4.4200     0.8070    -7.2290 ca         1 0O5      -0.012000
     28 C3           5.5080    -0.0810    -7.3260 ca         1 0O5      -0.204300
     29 H1           2.8910    -0.0270     1.1660 hn         1 0O5       0.178500
     30 H2           0.5350     0.8840     2.4930 h1         1 0O5       0.035700
     31 H3           0.5350    -0.8850     2.4930 h1         1 0O5       0.035700
     32 H4           2.7740     0.8850     3.5420 h1         1 0O5       0.010700
     33 H5           2.7750    -0.8840     3.5410 h1         1 0O5       0.010700
     34 H7           3.0470     0.5660     6.0620 h1         1 0O5       0.019450
     35 H8           2.8390    -1.1830     5.8600 h1         1 0O5       0.019450
     36 H9           2.1830    -0.4090     8.1410 h1         1 0O5       0.013700
     37 H10          0.8240    -1.1280     7.2590 h1         1 0O5       0.013700
     38 H11         -0.8510     0.3920     6.2940 h1         1 0O5       0.013700
     39 H12         -0.6190     2.1340     6.5250 h1         1 0O5       0.013700
     40 H13          1.3740     2.0830     5.0970 h1         1 0O5       0.019450
     41 H14         -0.0050     1.3950     4.2220 h1         1 0O5       0.019450
     42 H15          3.8940    -0.0100    -0.3420 ha         1 0O5       0.115000
     43 H16          5.1230    -0.0150    -2.4740 ha         1 0O5       0.120000
     44 H17          0.1730    -0.0120    -2.4910 ha         1 0O5       0.115000
     45 H18          1.4050    -0.0170    -4.6210 ha         1 0O5       0.120000
     46 H19          6.8760    -2.4140    -7.2660 hc         1 0O5       0.013700
     47 H20          6.9700    -2.4880    -5.5010 hc         1 0O5       0.013700
     48 H21          7.8960    -1.2680    -6.3860 hc         1 0O5       0.013700
     49 H22          2.0280     1.7500    -4.9740 ha         1 0O5       0.130000
     50 H23          1.4200     3.1940    -6.8450 ha         1 0O5       0.105000
     51 H24          2.6940     3.1370    -8.9500 ha         1 0O5       0.103000
     52 H25          4.5990     1.6320    -9.2190 ha         1 0O5       0.110000
     53 H26          6.0930    -0.1370    -8.2360 ha         1 0O5       0.119000
@<TRIPOS>BOND
     1     1     2 2   
     2     2     3 1   
     3     2    12 1   
     4     3     4 1   
     5     3    29 1   
     6     4     5 1   
     7     4    30 1   
     8     4    31 1   
     9     5     6 1   
    10     5    32 1   
    11     5    33 1   
    12     6     7 1   
    13     6    11 1   
    14     7     8 1   
    15     7    34 1   
    16     7    35 1   
    17     8     9 1   
    18     8    36 1   
    19     8    37 1   
    20     9    10 1   
    21    10    11 1   
    22    10    38 1   
    23    10    39 1   
    24    11    40 1   
    25    11    41 1   
    26    12    13 ar  
    27    12    15 ar  
    28    13    14 ar  
    29    13    42 1   
    30    14    17 ar  
    31    14    43 1   
    32    15    16 ar  
    33    15    44 1   
    34    16    17 ar  
    35    16    45 1   
    36    17    18 1   
    37    18    19 ar  
    38    18    22 ar  
    39    19    20 ar  
    40    20    21 1   
    41    20    28 ar  
    42    21    46 1   
    43    21    47 1   
    44    21    48 1   
    45    22    23 ar  
    46    22    27 ar  
    47    23    24 ar  
    48    23    49 1   
    49    24    25 ar  
    50    24    50 1   
    51    25    26 ar  
    52    25    51 1   
    53    26    27 ar  
    54    26    52 1   
    55    27    28 ar  
    56    28    53 1   
@<TRIPOS>SUBSTRUCTURE
     1 0O5         1 TEMP              0 ****  ****    0 ROOT
