@<TRIPOS>MOLECULE
molecule
   41    44     1     0     0
SMALL
bcc


@<TRIPOS>ATOM
      1 C1           0.0000     0.0000     0.0000 c3         1 0O7      -0.087100
      2 C2           1.5300     0.0000     0.0000 c3         1 0O7      -0.040100
      3 C3           2.0330     0.0000     1.4210 ca         1 0O7      -0.078300
      4 C4           2.2580     1.2000     2.0720 ca         1 0O7      -0.123000
      5 C5           2.7190     1.2050     3.3730 ca         1 0O7      -0.117000
      6 C6           2.9570     0.0000     4.0310 cp         1 0O7      -0.038000
      7 C7           2.7290    -1.2050     3.3690 ca         1 0O7      -0.117000
      8 C8           2.2630    -1.1990     2.0700 ca         1 0O7      -0.123000
      9 C9           3.4530     0.0010     5.4290 cp         1 0O7      -0.060000
     10 C10          3.6760     1.2070     6.0920 ca         1 0O7      -0.082000
     11 C11          4.1420     1.2090     7.3870 ca         1 0O7      -0.161000
     12 C12          4.3920     0.0110     8.0570 ca         1 0O7       0.193600
     13 N13          4.8850     0.0930     9.3630 nh         1 0O7      -0.662900
     14 C14          5.7160     1.2310     9.7640 c3         1 0O7       0.220100
     15 S15          4.5230    -1.1070    10.4630 sy         1 0O7       1.443200
     16 O16          5.6130    -1.1790    11.3730 o          1 0O7      -0.624800
     17 O17          3.1740    -0.9090    10.8640 o          1 0O7      -0.624800
     18 C18          4.5630    -2.5800     9.4880 cc         1 0O7      -0.508800
     19 C19          4.7390    -3.8530     9.8240 cd         1 0O7       0.031700
     20 N20          4.6840    -4.5880     8.6840 na         1 0O7      -0.042600
     21 N22          4.4630    -3.7130     7.6060 nd         1 0O7      -0.482800
     22 C23          4.3860    -2.5010     8.0760 cc         1 0O7       0.463800
     23 C24          4.1590    -1.2020     7.3960 ca         1 0O7      -0.170500
     24 C25          3.6900    -1.2020     6.0850 ca         1 0O7      -0.058000
     25 H1          -0.3610    -0.8130     0.6190 hc         1 0O7       0.036700
     26 H2          -0.3610    -0.1290    -1.0130 hc         1 0O7       0.036700
     27 H3          -0.3610     0.9420     0.3940 hc         1 0O7       0.036700
     28 H4           1.8910    -0.8840    -0.5110 hc         1 0O7       0.047700
     29 H5           1.8910     0.8840    -0.5110 hc         1 0O7       0.047700
     30 H6           2.0720     2.1370     1.5590 ha         1 0O7       0.132000
     31 H7           2.8940     2.1450     3.8820 ha         1 0O7       0.133000
     32 H8           2.9100    -2.1450     3.8760 ha         1 0O7       0.133000
     33 H9           2.0850    -2.1350     1.5550 ha         1 0O7       0.132000
     34 H10          3.4810     2.1460     5.5870 ha         1 0O7       0.139000
     35 H11          4.3120     2.1510     7.8940 ha         1 0O7       0.142000
     36 H12          6.2760     0.9730    10.6550 h1         1 0O7       0.053367
     37 H13          6.4040     1.4760     8.9630 h1         1 0O7       0.053367
     38 H14          5.0830     2.0860     9.9700 h1         1 0O7       0.053367
     39 H15          4.8980    -4.2350    10.8250 h4         1 0O7       0.183000
     40 H16          4.7830    -5.5820     8.6220 hn         1 0O7       0.334700
     41 H17          3.5100    -2.1410     5.5750 ha         1 0O7       0.155000
@<TRIPOS>BOND
     1     1     2 1   
     2     4     5 ar  
     3     4     3 ar  
     4     2     3 1   
     5     5     6 ar  
     6     3     8 ar  
     7    10    11 ar  
     8    10     9 ar  
     9    11    12 ar  
    10     6     9 1   
    11     6     7 ar  
    12     8     7 ar  
    13     9    24 ar  
    14    14    13 1   
    15    12    13 1   
    16    12    23 ar  
    17    13    15 1   
    18    24    23 ar  
    19    23    22 1   
    20    16    15 2   
    21    15    17 2   
    22    15    18 1   
    23    22    18 1   
    24    22    21 2   
    25    18    19 2   
    26    21    20 1   
    27    19    20 1   
    28     1    25 1   
    29     1    26 1   
    30     1    27 1   
    31     2    28 1   
    32     2    29 1   
    33     4    30 1   
    34     5    31 1   
    35     7    32 1   
    36     8    33 1   
    37    10    34 1   
    38    11    35 1   
    39    14    36 1   
    40    14    37 1   
    41    14    38 1   
    42    19    39 1   
    43    20    40 1   
    44    24    41 1   
@<TRIPOS>SUBSTRUCTURE
     1 0O7         1 TEMP              0 ****  ****    0 ROOT
