@<TRIPOS>MOLECULE
0O7
   41    44     1     0     0
SMALL
bcc


@<TRIPOS>ATOM
      1 C1           0.0850     0.0660    -0.0890 c3         1 0O7      -0.089100
      2 C2           1.5850    -0.0400     0.0460 c3         1 0O7      -0.039100
      3 C3           2.0220    -0.0120     1.4690 ca         1 0O7      -0.072300
      4 C4           1.9550     1.1780     2.2040 ca         1 0O7      -0.127500
      5 C5           2.3680     1.2130     3.5320 ca         1 0O7      -0.117000
      6 C6           2.8600     0.0560     4.1540 cp         1 0O7      -0.040000
      7 C7           2.9290    -1.1340     3.4170 ca         1 0O7      -0.117000
      8 C8           2.5130    -1.1670     2.0880 ca         1 0O7      -0.127500
      9 C9           3.2940     0.0910     5.5480 cp         1 0O7      -0.070000
     10 C10          2.5740     0.8210     6.5040 ca         1 0O7      -0.072000
     11 C11          2.9780     0.8590     7.8300 ca         1 0O7      -0.176000
     12 C12          4.1310     0.1640     8.2640 ca         1 0O7       0.215600
     13 N13          4.5360     0.1970     9.6060 nh         1 0O7      -0.654900
     14 C14          3.5420     0.5480    10.5850 c3         1 0O7       0.186100
     15 S15          6.0850    -0.0790    10.1520 sy         1 0O7       1.566200
     16 O16          6.8190     1.1140    10.1400 o          1 0O7      -0.655300
     17 O17          6.0360    -0.7070    11.4110 o          1 0O7      -0.655300
     18 C18          6.6470    -1.1170     9.0180 cc         1 0O7      -0.587800
     19 C19          7.7470    -2.0000     9.0170 cd         1 0O7       0.029700
     20 N20          7.7560    -2.6220     7.7840 na         1 0O7       0.002400
     21 N22          6.7550    -2.2220     6.9870 nd         1 0O7      -0.510800
     22 C23          6.0470    -1.3010     7.6970 cc         1 0O7       0.478800
     23 C24          4.8610    -0.5790     7.2890 ca         1 0O7      -0.196500
     24 C25          4.4370    -0.6020     5.9560 ca         1 0O7      -0.049000
     25 H1          -0.2030     0.0710    -1.1680 hc         1 0O7       0.036367
     26 H2          -0.4190    -0.7970     0.4080 hc         1 0O7       0.036367
     27 H3          -0.2870     1.0080     0.3830 hc         1 0O7       0.036367
     28 H4           1.9370    -0.9870    -0.4440 hc         1 0O7       0.047700
     29 H5           2.0690     0.8150    -0.5010 hc         1 0O7       0.047700
     30 H6           1.5740     2.0920     1.7240 ha         1 0O7       0.133000
     31 H7           2.3180     2.1560     4.0970 ha         1 0O7       0.135000
     32 H8           3.3080    -2.0510     3.8930 ha         1 0O7       0.135000
     33 H9           2.5710    -2.1090     1.5230 ha         1 0O7       0.133000
     34 H10          1.6700     1.3720     6.1990 ha         1 0O7       0.141000
     35 H11          2.3850     1.4500     8.5450 ha         1 0O7       0.143000
     36 H12          3.3540     1.6560    10.5830 h1         1 0O7       0.056367
     37 H13          3.8990     0.2390    11.6060 h1         1 0O7       0.056367
     38 H14          2.5720     0.0200    10.3770 h1         1 0O7       0.056367
     39 H15          8.4840    -2.2080     9.7970 h4         1 0O7       0.197000
     40 H16          8.4040    -3.3010     7.4520 hn         1 0O7       0.331700
     41 H17          5.0180    -1.1730     5.2130 ha         1 0O7       0.155000
@<TRIPOS>BOND
     1     1     2 1   
     2     1    25 1   
     3     1    26 1   
     4     1    27 1   
     5     2     3 1   
     6     2    28 1   
     7     2    29 1   
     8     3     4 ar  
     9     3     8 ar  
    10     4     5 ar  
    11     4    30 1   
    12     5     6 ar  
    13     5    31 1   
    14     6     7 ar  
    15     6     9 1   
    16     7     8 ar  
    17     7    32 1   
    18     8    33 1   
    19     9    10 ar  
    20     9    24 ar  
    21    10    11 ar  
    22    10    34 1   
    23    11    12 ar  
    24    11    35 1   
    25    12    13 1   
    26    12    23 ar  
    27    13    14 1   
    28    13    15 1   
    29    14    36 1   
    30    14    37 1   
    31    14    38 1   
    32    15    16 2   
    33    15    17 2   
    34    15    18 1   
    35    18    19 2   
    36    18    22 1   
    37    19    20 1   
    38    19    39 1   
    39    20    21 1   
    40    20    40 1   
    41    21    22 2   
    42    22    23 1   
    43    23    24 ar  
    44    24    41 1   
@<TRIPOS>SUBSTRUCTURE
     1 0O7         1 TEMP              0 ****  ****    0 ROOT
