@<TRIPOS>MOLECULE
0O8
   83    83     1     0     0
SMALL
bcc


@<TRIPOS>ATOM
      1 O1           0.0000     0.0000     0.0000 o          1 0O8      -0.653500
      2 P1           1.6100     0.0000     0.0000 p5         1 0O8       0.925800
      3 O2           2.1030     0.0000     1.3950 o          1 0O8      -0.653500
      4 O3           2.1460     1.3150    -0.7580 os         1 0O8      -0.504200
      5 C1           1.9280     2.6400    -0.2690 c3         1 0O8       0.317400
      6 C2           2.5660     3.6500    -1.2250 c3         1 0O8      -0.053400
      7 C3           2.3310     5.0680    -0.7010 c3         1 0O8      -0.025400
      8 O4           2.1470    -1.3140    -0.7600 os         1 0O8      -0.476200
      9 C4           1.9300    -2.6380    -0.2710 c3         1 0O8       0.284100
     10 C5           1.1510    -3.4470    -1.3130 c3         1 0O8      -0.080400
     11 C6           0.9910    -4.8860    -0.8180 c3         1 0O8      -0.004700
     12 N1           2.3140    -5.4890    -0.6180 n4         1 0O8       0.053200
     13 C7           3.0750    -5.4230    -1.8720 c3         1 0O8       0.006600
     14 C8           2.1550    -6.8930    -0.2160 c3         1 0O8       0.006600
     15 C9           3.0380    -4.7620     0.4310 c3         1 0O8      -0.004700
     16 C10          3.2780    -3.3180    -0.0160 c3         1 0O8      -0.080400
     17 H2           2.3750     2.7400     0.7130 h1         1 0O8      -0.014800
     18 H3           0.8630     2.8290    -0.2010 h1         1 0O8      -0.014800
     19 H4           3.6310     3.4610    -1.2920 hc         1 0O8       0.011700
     20 H5           2.1190     3.5490    -2.2070 hc         1 0O8       0.011700
     21 H6           1.3650    -2.6010     0.6520 h1         1 0O8       0.031700
     22 H7           0.1720    -3.0040    -1.4550 hc         1 0O8       0.057950
     23 H8           1.6940    -3.4460    -2.2500 hc         1 0O8       0.057950
     24 H9           0.4420    -5.4600    -1.5540 hx         1 0O8       0.066450
     25 H10          0.4510    -4.8850     0.1210 hx         1 0O8       0.066450
     26 H11          2.5730    -6.0110    -2.6310 hx         1 0O8       0.068367
     27 H12          4.0710    -5.8170    -1.7110 hx         1 0O8       0.068367
     28 H13          3.1430    -4.3930    -2.2000 hx         1 0O8       0.068367
     29 H14          1.6100    -6.9410     0.7190 hx         1 0O8       0.068367
     30 H15          1.6060    -7.4280    -0.9810 hx         1 0O8       0.068367
     31 H16          3.1310    -7.3450    -0.0880 hx         1 0O8       0.068367
     32 H17          2.4510    -4.7640     1.3410 hx         1 0O8       0.066450
     33 H18          3.9910    -5.2460     0.6100 hx         1 0O8       0.066450
     34 H19          3.8100    -2.7840     0.7620 hc         1 0O8       0.057950
     35 H20          3.8610    -3.3160    -0.9290 hc         1 0O8       0.057950
     36 H21          1.2670     5.2570    -0.6340 hc         1 0O8       0.012700
     37 H22          2.7780     5.1680     0.2810 hc         1 0O8       0.012700
     38 C11          2.9700     6.0770    -1.6570 c3         1 0O8      -0.029400
     39 C12          2.7360     7.4950    -1.1320 c3         1 0O8      -0.029400
     40 C13          3.3740     8.5040    -2.0890 c3         1 0O8      -0.029400
     41 C14          3.1400     9.9230    -1.5640 c3         1 0O8      -0.029400
     42 C15          3.7780    10.9310    -2.5200 c3         1 0O8      -0.029400
     43 C16          3.5440    12.3500    -1.9960 c3         1 0O8      -0.029400
     44 C17          4.1820    13.3590    -2.9530 c3         1 0O8      -0.029400
     45 C18          3.9480    14.7780    -2.4270 c3         1 0O8      -0.029400
     46 C19          4.5860    15.7860    -3.3840 c3         1 0O8      -0.029400
     47 C20          4.3520    17.2040    -2.8600 c3         1 0O8      -0.029400
     48 C21          4.9910    18.2140    -3.8160 c3         1 0O8      -0.029400
     49 C22          4.7560    19.6320    -3.2910 c3         1 0O8      -0.029400
     50 C23          5.3950    20.6410    -4.2470 c3         1 0O8      -0.030400
     51 C24          5.1610    22.0590    -3.7230 c3         1 0O8      -0.028400
     52 C25          5.7990    23.0690    -4.6800 c3         1 0O8       0.006900
     53 H23          4.0340     5.8870    -1.7230 hc         1 0O8       0.012200
     54 H24          2.5230     5.9760    -2.6390 hc         1 0O8       0.012200
     55 H25          1.6710     7.6840    -1.0660 hc         1 0O8       0.014200
     56 H26          3.1820     7.5950    -0.1510 hc         1 0O8       0.014200
     57 H27          4.4390     8.3160    -2.1550 hc         1 0O8       0.013200
     58 H28          2.9280     8.4040    -3.0710 hc         1 0O8       0.013200
     59 H29          2.0750    10.1120    -1.4980 hc         1 0O8       0.014700
     60 H30          3.5860    10.0230    -0.5820 hc         1 0O8       0.014700
     61 H31          4.8430    10.7420    -2.5860 hc         1 0O8       0.013700
     62 H32          3.3320    10.8310    -3.5020 hc         1 0O8       0.013700
     63 H33          3.9910    12.4500    -1.0140 hc         1 0O8       0.014700
     64 H34          2.4800    12.5390    -1.9290 hc         1 0O8       0.014700
     65 H35          3.7350    13.2590    -3.9340 hc         1 0O8       0.014200
     66 H36          5.2470    13.1700    -3.0200 hc         1 0O8       0.014200
     67 H37          2.8840    14.9670    -2.3600 hc         1 0O8       0.014700
     68 H38          4.3960    14.8780    -1.4460 hc         1 0O8       0.014700
     69 H39          4.1390    15.6860    -4.3650 hc         1 0O8       0.014700
     70 H40          5.6510    15.5970    -3.4510 hc         1 0O8       0.014700
     71 H41          3.2880    17.3940    -2.7930 hc         1 0O8       0.014700
     72 H42          4.7990    17.3050    -1.8780 hc         1 0O8       0.014700
     73 H43          4.5440    18.1140    -4.7980 hc         1 0O8       0.014700
     74 H44          6.0560    18.0250    -3.8820 hc         1 0O8       0.014700
     75 H45          3.6920    19.8220    -3.2250 hc         1 0O8       0.014700
     76 H46          5.2030    19.7330    -2.3090 hc         1 0O8       0.014700
     77 H47          4.9480    20.5410    -5.2290 hc         1 0O8       0.014700
     78 H48          6.4590    20.4520    -4.3140 hc         1 0O8       0.014700
     79 H49          5.6080    22.1600    -2.7410 hc         1 0O8       0.011700
     80 H50          4.0960    22.2480    -3.6560 hc         1 0O8       0.011700
     81 H51          6.8630    22.8800    -4.7470 hc         1 0O8       0.000033
     82 H52          5.6330    24.0730    -4.3090 hc         1 0O8       0.000033
     83 H53          5.3520    22.9690    -5.6620 hc         1 0O8       0.000033
@<TRIPOS>BOND
     1     1     2 1   
     2     2     3 1   
     3     2     4 1   
     4     2     8 1   
     5     4     5 1   
     6     5     6 1   
     7     5    17 1   
     8     5    18 1   
     9     6     7 1   
    10     6    19 1   
    11     6    20 1   
    12     7    36 1   
    13     7    37 1   
    14     7    38 1   
    15     8     9 1   
    16     9    10 1   
    17     9    16 1   
    18     9    21 1   
    19    10    11 1   
    20    10    22 1   
    21    10    23 1   
    22    11    12 1   
    23    11    24 1   
    24    11    25 1   
    25    12    13 1   
    26    12    14 1   
    27    12    15 1   
    28    13    26 1   
    29    13    27 1   
    30    13    28 1   
    31    14    29 1   
    32    14    30 1   
    33    14    31 1   
    34    15    16 1   
    35    15    32 1   
    36    15    33 1   
    37    16    34 1   
    38    16    35 1   
    39    38    39 1   
    40    38    53 1   
    41    38    54 1   
    42    39    40 1   
    43    39    55 1   
    44    39    56 1   
    45    40    41 1   
    46    40    57 1   
    47    40    58 1   
    48    41    42 1   
    49    41    59 1   
    50    41    60 1   
    51    42    43 1   
    52    42    61 1   
    53    42    62 1   
    54    43    44 1   
    55    43    63 1   
    56    43    64 1   
    57    44    45 1   
    58    44    65 1   
    59    44    66 1   
    60    45    46 1   
    61    45    67 1   
    62    45    68 1   
    63    46    47 1   
    64    46    69 1   
    65    46    70 1   
    66    47    48 1   
    67    47    71 1   
    68    47    72 1   
    69    48    49 1   
    70    48    73 1   
    71    48    74 1   
    72    49    50 1   
    73    49    75 1   
    74    49    76 1   
    75    50    51 1   
    76    50    77 1   
    77    50    78 1   
    78    51    52 1   
    79    51    79 1   
    80    51    80 1   
    81    52    81 1   
    82    52    82 1   
    83    52    83 1   
@<TRIPOS>SUBSTRUCTURE
     1 0O8         1 TEMP              0 ****  ****    0 ROOT
