@<TRIPOS>MOLECULE
0O9
  107   108     1     0     0
SMALL
bcc


@<TRIPOS>ATOM
      1 C5           0.0000     0.0000     0.0000 DU         1 0O9      -0.036000
      2 C6           1.5300     0.0000     0.0000 c3         1 0O9      -0.155000
      3 O7          -0.4760    -0.0820     2.8380 oh         1 0O9      -0.333000
      4 O19         -2.4130    -2.5820    -1.3670 o          1 0O9      -0.667500
      5 P16         -2.8160    -2.4180     0.0470 p5         1 0O9       1.399000
      6 O18         -2.5700    -3.7980     0.8380 o          1 0O9      -0.667500
      7 O17         -4.3760    -2.0270     0.1200 os         1 0O9      -0.660000
      8 C20         -5.4040    -2.8130    -0.4880 c3         1 0O9       0.142000
      9 C21         -6.7640    -2.1620    -0.2290 c3         1 0O9       0.035000
     10 O26         -6.8180    -0.8950    -0.8870 os         1 0O9      -0.270000
     11 C27         -6.3620     0.1960    -0.0850 c3         1 0O9       0.051000
     12 C22         -7.8730    -3.0660    -0.7710 c3         1 0O9       0.058000
     13 O23         -9.1470    -2.5160    -0.4270 os         1 0O9      -0.267000
     14 C24        -10.2580    -3.2870    -0.8880 c3         1 0O9       0.062000
     15 C25        -11.5610    -2.6080    -0.4650 c3         1 0O9      -0.116000
     16 O15         -1.9390    -1.2490     0.7220 os         1 0O9      -0.630000
     17 C4          -0.5090    -1.2490     0.7220 c3         1 0O9      -0.001000
     18 C3          -0.0000    -1.2490     2.1640 c3         1 0O9       0.132000
     19 C2           1.5310    -1.2490     2.1640 c3         1 0O9       0.021000
     20 O8           2.0070    -1.2500     3.5110 oh         1 0O9      -0.312000
     21 C1           2.0400     0.0000     1.4420 c3         1 0O9       0.071000
     22 O9           3.4690    -0.0010     1.4420 oh         1 0O9      -0.320000
     23 O10         -0.4750     1.1670     0.6740 os         1 0O9      -0.271000
     24 C11         -0.6690     2.2950    -0.1820 c3         1 0O9      -0.127000
     25 C12         -1.1780     3.4800     0.6420 c3         1 0O9      -0.063000
     26 C14         -0.0980     3.9080     1.6370 c3         1 0O9      -0.115500
     27 C13         -1.5030     4.6470    -0.2910 c3         1 0O9      -0.115500
     28 H1          -0.3590    -0.0040    -1.0220 ha         1 0O9       0.072000
     29 H2           1.9140     0.8550    -0.5430 hc         1 0O9       0.063500
     30 H3           1.8630    -0.9160    -0.4730 hc         1 0O9       0.063500
     31 H4          -0.2000     0.6870     2.3670 ho         1 0O9       0.211000
     32 H6          -5.3920    -3.8180    -0.0830 h1         1 0O9       0.028500
     33 H7          -5.2300    -2.8610    -1.5560 h1         1 0O9       0.028500
     34 H8          -6.9010    -2.0240     0.8370 h1         1 0O9       0.057000
     35 H9          -7.0550     0.3430     0.7340 h1         1 0O9       0.029667
     36 H10         -5.3790    -0.0270     0.3130 h1         1 0O9       0.029667
     37 H11         -6.3150     1.0970    -0.6840 h1         1 0O9       0.029667
     38 H12         -7.7790    -4.0490    -0.3260 h1         1 0O9       0.034000
     39 H13         -7.7870    -3.1480    -1.8470 h1         1 0O9       0.034000
     40 H14        -10.2280    -3.3550    -1.9690 h1         1 0O9       0.024500
     41 H15        -10.2130    -4.2810    -0.4600 h1         1 0O9       0.024500
     42 H16        -11.5960    -2.5320     0.6150 hc         1 0O9       0.061500
     43 H17        -11.6070    -1.6190    -0.9040 hc         1 0O9       0.061500
     44 H19         -0.3290    -1.1670    -0.3430 DU         1 0O9       0.196000
     45 H20         -0.3580    -2.1360     2.6720 h1         1 0O9       0.097000
     46 H21          1.8900    -2.1330     1.6510 h1         1 0O9       0.056000
     47 H22          2.1320    -2.1380     3.8000 ho         1 0O9       0.184000
     48 H23          1.6750     0.8830     1.9530 h1         1 0O9       0.060000
     49 H24          3.7950     0.7920     1.8350 ho         1 0O9       0.182000
     50 H25         -1.5440     1.6550    -0.1890 h1         1 0O9       0.110000
     51 H26         -0.1080     2.3930    -1.1040 h1         1 0O9       0.110000
     52 H27         -2.0710     3.1880     1.1810 hc         1 0O9       0.078000
     53 H28         -0.3410     3.5310     2.6230 hc         1 0O9       0.039167
     54 H29          0.8600     3.5110     1.3240 hc         1 0O9       0.039167
     55 H30         -0.0470     4.9900     1.6690 hc         1 0O9       0.039167
     56 H31         -2.3960     5.1540     0.0540 hc         1 0O9       0.039167
     57 H32         -1.6680     4.2750    -1.2960 hc         1 0O9       0.039167
     58 H33         -0.6720     5.3420    -0.2960 hc         1 0O9       0.039167
     59 C7         -12.7510    -3.4350    -0.9590 c3         1 0O9      -0.104000
     60 C8         -14.0540    -2.7540    -0.5360 c3         1 0O9      -0.108000
     61 C9         -15.2440    -3.5810    -1.0300 c3         1 0O9      -0.108000
     62 C10        -16.5480    -2.9020    -0.6080 c3         1 0O9      -0.109000
     63 C15        -17.7370    -3.7280    -1.1010 c3         1 0O9      -0.108000
     64 C16        -19.0410    -3.0490    -0.6780 c3         1 0O9      -0.108000
     65 C17        -20.2300    -3.8740    -1.1720 c3         1 0O9      -0.108000
     66 C18        -21.5340    -3.1950    -0.7490 c3         1 0O9      -0.108000
     67 C19        -22.7240    -4.0220    -1.2440 c3         1 0O9      -0.108000
     68 C23        -24.0270    -3.3420    -0.8200 c3         1 0O9      -0.107000
     69 C26        -25.2170    -4.1690    -1.3140 c3         1 0O9      -0.109000
     70 C28        -26.5200    -3.4880    -0.8910 c3         1 0O9      -0.113000
     71 C29        -27.7100    -4.3150    -1.3850 c3         1 0O9      -0.107000
     72 C30        -29.0140    -3.6360    -0.9630 c3         1 0O9      -0.109000
     73 C31        -30.2030    -4.4620    -1.4560 c3         1 0O9      -0.106000
     74 C32        -31.5070    -3.7830    -1.0330 c3         1 0O9      -0.112000
     75 H18        -12.7170    -3.5130    -2.0380 hc         1 0O9       0.052000
     76 H34        -12.7060    -4.4220    -0.5160 hc         1 0O9       0.052000
     77 H35        -14.0970    -1.7600    -0.9640 hc         1 0O9       0.054500
     78 H36        -14.0880    -2.6820     0.5440 hc         1 0O9       0.054500
     79 H37        -15.1980    -4.5680    -0.5840 hc         1 0O9       0.053500
     80 H38        -15.2080    -3.6540    -2.1100 hc         1 0O9       0.053500
     81 H39        -16.5970    -1.8910    -0.9940 hc         1 0O9       0.054000
     82 H40        -16.5810    -2.8780     0.4750 hc         1 0O9       0.054000
     83 H41        -17.7020    -3.7990    -2.1810 hc         1 0O9       0.053500
     84 H42        -17.6900    -4.7210    -0.6720 hc         1 0O9       0.053500
     85 H43        -19.0880    -2.0560    -1.1090 hc         1 0O9       0.054000
     86 H44        -19.0770    -2.9750     0.4020 hc         1 0O9       0.054000
     87 H45        -20.1950    -3.9470    -2.2530 hc         1 0O9       0.054000
     88 H46        -20.1830    -4.8680    -0.7430 hc         1 0O9       0.054000
     89 H47        -21.5800    -2.2040    -1.1840 hc         1 0O9       0.053500
     90 H48        -21.5700    -3.1170     0.3310 hc         1 0O9       0.053500
     91 H49        -22.6780    -5.0160    -0.8160 hc         1 0O9       0.054000
     92 H50        -22.6890    -4.0870    -2.3240 hc         1 0O9       0.054000
     93 H51        -24.0620    -3.2800     0.2610 hc         1 0O9       0.054000
     94 H52        -24.0740    -2.3440    -1.2390 hc         1 0O9       0.054000
     95 H53        -25.1750    -5.1170    -0.7920 hc         1 0O9       0.056500
     96 H54        -25.2360    -4.2840    -2.3910 hc         1 0O9       0.056500
     97 H55        -26.5540    -3.4190     0.1890 hc         1 0O9       0.053500
     98 H56        -26.5640    -2.4920    -1.3150 hc         1 0O9       0.053500
     99 H57        -27.6630    -5.3070    -0.9520 hc         1 0O9       0.053500
    100 H58        -27.6740    -4.3970    -2.4650 hc         1 0O9       0.053500
    101 H59        -29.0570    -2.6680    -1.4470 hc         1 0O9       0.053500
    102 H60        -29.0550    -3.4910     0.1100 hc         1 0O9       0.053500
    103 H61        -30.1580    -5.4550    -1.0260 hc         1 0O9       0.051000
    104 H62        -30.1680    -4.5350    -2.5370 hc         1 0O9       0.051000
    105 H63        -31.5850    -3.7700     0.0470 hc         1 0O9       0.038667
    106 H64        -31.5360    -2.7700    -1.4180 hc         1 0O9       0.038667
    107 H65        -32.3390    -4.3440    -1.4420 hc         1 0O9       0.038667
@<TRIPOS>BOND
     1     1     2 1   
     2     1    17 1   
     3     1    23 1   
     4     1    28 1   
     5     1    44 1   
     6     2    21 1   
     7     2    29 1   
     8     2    30 1   
     9     3    18 1   
    10     3    31 1   
    11     4     5 1   
    12     5     6 1   
    13     5     7 1   
    14     5    16 1   
    15     7     8 1   
    16     8     9 1   
    17     8    32 1   
    18     8    33 1   
    19     9    10 1   
    20     9    12 1   
    21     9    34 1   
    22    10    11 1   
    23    11    35 1   
    24    11    36 1   
    25    11    37 1   
    26    12    13 1   
    27    12    38 1   
    28    12    39 1   
    29    13    14 1   
    30    14    15 1   
    31    14    40 1   
    32    14    41 1   
    33    15    42 1   
    34    15    43 1   
    35    15    59 1   
    36    16    17 1   
    37    17    18 1   
    38    17    44 1   
    39    18    19 1   
    40    18    45 1   
    41    19    20 1   
    42    19    21 1   
    43    19    46 1   
    44    20    47 1   
    45    21    22 1   
    46    21    48 1   
    47    22    49 1   
    48    23    24 1   
    49    24    25 1   
    50    24    50 1   
    51    24    51 1   
    52    25    26 1   
    53    25    27 1   
    54    25    52 1   
    55    26    53 1   
    56    26    54 1   
    57    26    55 1   
    58    27    56 1   
    59    27    57 1   
    60    27    58 1   
    61    59    60 1   
    62    59    75 1   
    63    59    76 1   
    64    60    61 1   
    65    60    77 1   
    66    60    78 1   
    67    61    62 1   
    68    61    79 1   
    69    61    80 1   
    70    62    63 1   
    71    62    81 1   
    72    62    82 1   
    73    63    64 1   
    74    63    83 1   
    75    63    84 1   
    76    64    65 1   
    77    64    85 1   
    78    64    86 1   
    79    65    66 1   
    80    65    87 1   
    81    65    88 1   
    82    66    67 1   
    83    66    89 1   
    84    66    90 1   
    85    67    68 1   
    86    67    91 1   
    87    67    92 1   
    88    68    69 1   
    89    68    93 1   
    90    68    94 1   
    91    69    70 1   
    92    69    95 1   
    93    69    96 1   
    94    70    71 1   
    95    70    97 1   
    96    70    98 1   
    97    71    72 1   
    98    71    99 1   
    99    71   100 1   
   100    72    73 1   
   101    72   101 1   
   102    72   102 1   
   103    73    74 1   
   104    73   103 1   
   105    73   104 1   
   106    74   105 1   
   107    74   106 1   
   108    74   107 1   
@<TRIPOS>SUBSTRUCTURE
     1 0O9         1 TEMP              0 ****  ****    0 ROOT
