@<TRIPOS>MOLECULE
molecule
  107   107     1     0     0
SMALL
bcc


@<TRIPOS>ATOM
      1 C5           0.0000     0.0000     0.0000 c3         1 0O9       0.133100
      2 C6           1.5300     0.0000     0.0000 c3         1 0O9      -0.118400
      3 O7          -0.4760    -0.0820     2.8380 oh         1 0O9      -0.571800
      4 O19         -2.4140    -2.5820    -1.3680 o          1 0O9      -0.826500
      5 P16         -2.8160    -2.4180     0.0470 p5         1 0O9       1.359800
      6 O18         -2.5700    -3.7980     0.8380 o          1 0O9      -0.826500
      7 O17         -4.3760    -2.0270     0.1200 os         1 0O9      -0.601200
      8 C20         -5.4040    -2.8130    -0.4880 c3         1 0O9       0.208400
      9 C21         -6.7640    -2.1620    -0.2290 c3         1 0O9       0.139100
     10 O26         -6.8180    -0.8950    -0.8870 os         1 0O9      -0.423600
     11 C27         -6.3620     0.1960    -0.0850 c3         1 0O9       0.143700
     12 C22         -7.8730    -3.0660    -0.7710 c3         1 0O9       0.137400
     13 O23         -9.1470    -2.5160    -0.4270 os         1 0O9      -0.425600
     14 C24        -10.2580    -3.2870    -0.8880 c3         1 0O9       0.140400
     15 C25        -11.5610    -2.6080    -0.4650 c3         1 0O9      -0.081400
     16 O15         -1.9390    -1.2490     0.7220 os         1 0O9      -0.580200
     17 C4          -0.5090    -1.2490     0.7220 c3         1 0O9       0.242100
     18 C3          -0.0000    -1.2490     2.1640 c3         1 0O9       0.124100
     19 C2           1.5310    -1.2490     2.1640 c3         1 0O9       0.127100
     20 O8           2.0070    -1.2500     3.5110 oh         1 0O9      -0.605800
     21 C1           2.0400     0.0000     1.4420 c3         1 0O9       0.144100
     22 O9           3.4690    -0.0010     1.4420 oh         1 0O9      -0.621800
     23 O10         -0.4750     1.1670     0.6740 os         1 0O9      -0.381600
     24 C11         -0.6690     2.2950    -0.1820 c3         1 0O9       0.137400
     25 C12         -1.1780     3.4800     0.6420 c3         1 0O9      -0.071700
     26 C14         -0.0980     3.9080     1.6370 c3         1 0O9      -0.085600
     27 C13         -1.5030     4.6470    -0.2910 c3         1 0O9      -0.085600
     28 H1          -0.3590    -0.0040    -1.0220 h1         1 0O9       0.058700
     29 H2           1.8890     0.8860    -0.5090 hc         1 0O9       0.048700
     30 H3           1.8890    -0.8860    -0.5090 hc         1 0O9       0.048700
     31 H4          -0.9690    -0.3380     3.6000 ho         1 0O9       0.392000
     32 H6          -5.3950    -3.8100    -0.0640 h1         1 0O9       0.038700
     33 H7          -5.2300    -2.8730    -1.5550 h1         1 0O9       0.038700
     34 H8          -6.9000    -2.0220     0.8360 h1         1 0O9       0.051700
     35 H9          -6.1490    -0.1570     0.9170 h1         1 0O9       0.027367
     36 H10         -7.1290     0.9600    -0.0430 h1         1 0O9       0.027367
     37 H11         -5.4610     0.6120    -0.5200 h1         1 0O9       0.027367
     38 H12         -7.7780    -4.0540    -0.3370 h1         1 0O9       0.031200
     39 H13         -7.7890    -3.1350    -1.8480 h1         1 0O9       0.031200
     40 H14        -10.2230    -3.3600    -1.9690 h1         1 0O9       0.017700
     41 H15        -10.2120    -4.2800    -0.4580 h1         1 0O9       0.017700
     42 H16        -11.6080    -1.6150    -0.8960 hc         1 0O9       0.052200
     43 H17        -11.5960    -2.5340     0.6150 hc         1 0O9       0.052200
     44 H19         -0.1440    -2.1320     0.2120 h1         1 0O9       0.062700
     45 H20         -0.3590    -2.1360     2.6710 h1         1 0O9       0.058700
     46 H21          1.8890    -2.1320     1.6490 h1         1 0O9       0.044700
     47 H22          2.4230    -2.0750     3.6970 ho         1 0O9       0.394000
     48 H23          1.6750     0.8830     1.9520 h1         1 0O9       0.072700
     49 H24          3.7840     0.7960     1.8350 ho         1 0O9       0.395000
     50 H25          0.2710     2.5580    -0.6510 h1         1 0O9       0.016700
     51 H26         -1.3970     2.0480    -0.9460 h1         1 0O9       0.016700
     52 H27         -2.0710     3.1880     1.1810 hc         1 0O9       0.069700
     53 H28          0.8760     3.8300     1.1700 hc         1 0O9       0.030200
     54 H29         -0.2720     4.9340     1.9390 hc         1 0O9       0.030200
     55 H30         -0.1340     3.2650     2.5080 hc         1 0O9       0.030200
     56 H31         -0.5900     5.0120    -0.7450 hc         1 0O9       0.030200
     57 H32         -1.9680     5.4450     0.2760 hc         1 0O9       0.030200
     58 H33         -2.1820     4.3120    -1.0660 hc         1 0O9       0.030200
     59 C7         -12.7510    -3.4350    -0.9590 c3         1 0O9      -0.081400
     60 C8         -14.0540    -2.7540    -0.5360 c3         1 0O9      -0.080400
     61 C9         -15.2440    -3.5810    -1.0300 c3         1 0O9      -0.082400
     62 C10        -16.5480    -2.9020    -0.6080 c3         1 0O9      -0.082400
     63 C15        -17.7370    -3.7280    -1.1010 c3         1 0O9      -0.082400
     64 C16        -19.0410    -3.0490    -0.6780 c3         1 0O9      -0.082400
     65 C17        -20.2300    -3.8740    -1.1720 c3         1 0O9      -0.082400
     66 C18        -21.5340    -3.1950    -0.7490 c3         1 0O9      -0.082400
     67 C19        -22.7240    -4.0220    -1.2440 c3         1 0O9      -0.082400
     68 C23        -24.0270    -3.3420    -0.8200 c3         1 0O9      -0.082400
     69 C26        -25.2170    -4.1690    -1.3140 c3         1 0O9      -0.082400
     70 C28        -26.5200    -3.4880    -0.8910 c3         1 0O9      -0.082400
     71 C29        -27.7100    -4.3150    -1.3850 c3         1 0O9      -0.082400
     72 C30        -29.0140    -3.6360    -0.9630 c3         1 0O9      -0.081400
     73 C31        -30.2030    -4.4620    -1.4560 c3         1 0O9      -0.084400
     74 C32        -31.5070    -3.7830    -1.0330 c3         1 0O9      -0.092100
     75 H18        -12.7160    -3.5090    -2.0390 hc         1 0O9       0.040200
     76 H34        -12.7050    -4.4270    -0.5270 hc         1 0O9       0.040200
     77 H35        -14.0890    -2.6800     0.5440 hc         1 0O9       0.042200
     78 H36        -14.1000    -1.7620    -0.9680 hc         1 0O9       0.042200
     79 H37        -15.1970    -4.5740    -0.5980 hc         1 0O9       0.040200
     80 H38        -15.2090    -3.6550    -2.1100 hc         1 0O9       0.040200
     81 H39        -16.5830    -2.8280     0.4730 hc         1 0O9       0.040700
     82 H40        -16.5940    -1.9090    -1.0390 hc         1 0O9       0.040700
     83 H41        -17.6900    -4.7210    -0.6700 hc         1 0O9       0.040700
     84 H42        -17.7020    -3.8010    -2.1810 hc         1 0O9       0.040700
     85 H43        -19.0870    -2.0560    -1.1080 hc         1 0O9       0.040700
     86 H44        -19.0760    -2.9760     0.4030 hc         1 0O9       0.040700
     87 H45        -20.1950    -3.9470    -2.2530 hc         1 0O9       0.040700
     88 H46        -20.1840    -4.8670    -0.7420 hc         1 0O9       0.040700
     89 H47        -21.5810    -2.2020    -1.1800 hc         1 0O9       0.040700
     90 H48        -21.5690    -3.1220     0.3310 hc         1 0O9       0.040700
     91 H49        -22.6890    -4.0950    -2.3240 hc         1 0O9       0.040700
     92 H50        -22.6780    -5.0150    -0.8130 hc         1 0O9       0.040700
     93 H51        -24.0730    -2.3490    -1.2520 hc         1 0O9       0.040700
     94 H52        -24.0620    -3.2680     0.2600 hc         1 0O9       0.040700
     95 H53        -25.1820    -4.2430    -2.3940 hc         1 0O9       0.040700
     96 H54        -25.1710    -5.1610    -0.8820 hc         1 0O9       0.040700
     97 H55        -26.5660    -2.4960    -1.3230 hc         1 0O9       0.040700
     98 H56        -26.5550    -3.4140     0.1890 hc         1 0O9       0.040700
     99 H57        -27.6630    -5.3080    -0.9530 hc         1 0O9       0.040700
    100 H58        -27.6740    -4.3890    -2.4650 hc         1 0O9       0.040700
    101 H59        -29.0490    -3.5620     0.1170 hc         1 0O9       0.040700
    102 H60        -29.0600    -2.6430    -1.3940 hc         1 0O9       0.040700
    103 H61        -30.1680    -4.5350    -2.5370 hc         1 0O9       0.039700
    104 H62        -30.1560    -5.4550    -1.0250 hc         1 0O9       0.039700
    105 H63        -31.5370    -3.7000     0.0470 hc         1 0O9       0.032033
    106 H64        -32.3490    -4.3730    -1.3740 hc         1 0O9       0.032033
    107 H65        -31.5580    -2.7940    -1.4720 hc         1 0O9       0.032033
@<TRIPOS>BOND
     1    12     9 1
     2    12    13 1
     3    10     9 1
     4    10    11 1
     5     9     8 1
     6    14    13 1
     7    14    15 1
     8     4     5 1
     9     8     7 1
    10     7     5 1
    11     5     6 1
    12     5    16 1
    13     3    18 1
    14    16    17 1
    15    17    18 1
    16    17     1 1
    17    18    19 1
    18    20    19 1
    19    23     1 1
    20    23    24 1
    21    19    21 1
    22     1     2 1
    23    24    25 1
    24     2    21 1
    25    25    27 1
    26    25    26 1
    27    21    22 1
    28     1    28 1
    29     2    29 1
    30     2    30 1
    31     3    31 1
    32     8    32 1
    33     8    33 1
    34     9    34 1
    35    11    35 1
    36    11    36 1
    37    11    37 1
    38    12    38 1
    39    12    39 1
    40    14    40 1
    41    14    41 1
    42    15    42 1
    43    15    43 1
    44    17    44 1
    45    18    45 1
    46    19    46 1
    47    20    47 1
    48    21    48 1
    49    22    49 1
    50    24    50 1
    51    24    51 1
    52    25    52 1
    53    26    53 1
    54    26    54 1
    55    26    55 1
    56    27    56 1
    57    27    57 1
    58    27    58 1
    59    15    59 1
    60    59    60 1
    61    60    61 1
    62    61    62 1
    63    62    63 1
    64    63    64 1
    65    64    65 1
    66    65    66 1
    67    66    67 1
    68    67    68 1
    69    68    69 1
    70    69    70 1
    71    70    71 1
    72    71    72 1
    73    72    73 1
    74    73    74 1
    75    59    75 1
    76    59    76 1
    77    60    77 1
    78    60    78 1
    79    61    79 1
    80    61    80 1
    81    62    81 1
    82    62    82 1
    83    63    83 1
    84    63    84 1
    85    64    85 1
    86    64    86 1
    87    65    87 1
    88    65    88 1
    89    66    89 1
    90    66    90 1
    91    67    91 1
    92    67    92 1
    93    68    93 1
    94    68    94 1
    95    69    95 1
    96    69    96 1
    97    70    97 1
    98    70    98 1
    99    71    99 1
   100    71   100 1
   101    72   101 1
   102    72   102 1
   103    73   103 1
   104    73   104 1
   105    74   105 1
   106    74   106 1
   107    74   107 1
@<TRIPOS>SUBSTRUCTURE
     1 0O9         1 TEMP              0 ****  ****    0 ROOT
