@<TRIPOS>MOLECULE
molecule
  114   115     1     0     0
SMALL
bcc


@<TRIPOS>ATOM
      1 O15          0.0000     0.0000     0.0000 o          1 0OA      -0.820000
      2 P12          1.6100     0.0000     0.0000 p5         1 0OA       1.357800
      3 O14          2.1030     0.0000     1.3960 o          1 0OA      -0.820000
      4 O13          2.1460    -1.3160    -0.7580 os         1 0OA      -0.595200
      5 C16          1.9270    -2.6400    -0.2680 c3         1 0OA       0.236400
      6 C17          2.5650    -3.6500    -1.2240 c3         1 0OA       0.139100
      7 O22          1.8980    -3.5980    -2.4860 os         1 0OA      -0.401600
      8 C23          2.7320    -3.9250    -3.5990 c3         1 0OA       0.138700
      9 C18          2.4400    -5.0570    -0.6370 c3         1 0OA       0.107400
     10 O19          3.1380    -5.9840    -1.4720 os         1 0OA      -0.435600
     11 C20          3.0830    -7.3360    -1.0110 c3         1 0OA       0.140400
     12 C21          3.8580    -8.2360    -1.9760 c3         1 0OA      -0.082400
     13 O11          2.1470     1.3140    -0.7590 os         1 0OA      -0.580200
     14 C4           1.9290     2.6390    -0.2700 c3         1 0OA       0.249100
     15 C3           1.1420     3.4420    -1.3080 c3         1 0OA       0.128100
     16 O7          -0.1160     2.8090    -1.5470 oh         1 0OA      -0.563800
     17 C2           0.9100     4.8610    -0.7850 c3         1 0OA       0.123100
     18 O8           0.1750     5.6110    -1.7540 oh         1 0OA      -0.613800
     19 C5           3.2770     3.3160    -0.0160 c3         1 0OA       0.126100
     20 C6           3.0440     4.7350     0.5080 c3         1 0OA      -0.123400
     21 C1           2.2580     5.5390    -0.5300 c3         1 0OA       0.134100
     22 O9           2.0390     6.8640    -0.0420 oh         1 0OA      -0.615800
     23 O10          4.0200     3.3740    -1.2350 os         1 0OA      -0.415600
     24 H2           0.8620    -2.8280    -0.2010 h1         1 0OA       0.039700
     25 H3           2.3740    -2.7400     0.7140 h1         1 0OA       0.039700
     26 H4           3.6120    -3.4070    -1.3590 h1         1 0OA       0.049700
     27 H5           2.6430    -3.1550    -4.3560 h1         1 0OA       0.021367
     28 H6           3.7630    -3.9910    -3.2710 h1         1 0OA       0.021367
     29 H7           2.4240    -4.8770    -4.0150 h1         1 0OA       0.021367
     30 H8           1.3950    -5.3350    -0.5840 h1         1 0OA       0.031700
     31 H9           2.8700    -5.0730     0.3570 h1         1 0OA       0.031700
     32 H10          3.5250    -7.3990    -0.0240 h1         1 0OA       0.019700
     33 H11          2.0500    -7.6600    -0.9660 h1         1 0OA       0.019700
     34 H12          3.4160    -8.1720    -2.9630 hc         1 0OA       0.051200
     35 H13          4.8910    -7.9110    -2.0210 hc         1 0OA       0.051200
     36 H15          1.3670     2.6000     0.6550 h1         1 0OA       0.071700
     37 H16          1.7090     3.4880    -2.2310 h1         1 0OA       0.055700
     38 H17         -0.2680     2.7510    -2.4760 ho         1 0OA       0.397000
     39 H18          0.3510     4.8140     0.1420 h1         1 0OA       0.055700
     40 H19         -0.6080     5.9560    -1.3580 ho         1 0OA       0.403000
     41 H20          3.8300     2.7480     0.7220 h1         1 0OA       0.064700
     42 H21          2.4780     4.6890     1.4310 hc         1 0OA       0.051200
     43 H22          3.9990     5.2140     0.6870 hc         1 0OA       0.051200
     44 H23          2.8210     5.5780    -1.4550 h1         1 0OA       0.053700
     45 H24          2.5610     7.4720    -0.5380 ho         1 0OA       0.394000
     46 C7           5.4360     3.3330    -1.0550 c3         1 0OA       0.141400
     47 C13          3.7990    -9.6830    -1.4820 c3         1 0OA      -0.081400
     48 C14          4.5750   -10.5820    -2.4470 c3         1 0OA      -0.080400
     49 C15          4.5160   -12.0290    -1.9540 c3         1 0OA      -0.082400
     50 C19          5.2910   -12.9290    -2.9180 c3         1 0OA      -0.082400
     51 C22          5.2320   -14.3760    -2.4240 c3         1 0OA      -0.082400
     52 C24          6.0070   -15.2750    -3.3890 c3         1 0OA      -0.082400
     53 C25          5.9480   -16.7230    -2.8960 c3         1 0OA      -0.082400
     54 C26          6.7240   -17.6230    -3.8610 c3         1 0OA      -0.082400
     55 C27          6.6650   -19.0700    -3.3670 c3         1 0OA      -0.082400
     56 C28          7.4400   -19.9690    -4.3320 c3         1 0OA      -0.082400
     57 C29          7.3820   -21.4160    -3.8380 c3         1 0OA      -0.082400
     58 C30          8.1570   -22.3160    -4.8040 c3         1 0OA      -0.082400
     59 C31          8.0980   -23.7630    -4.3100 c3         1 0OA      -0.082400
     60 C32          8.8730   -24.6620    -5.2740 c3         1 0OA      -0.081400
     61 C33          8.8150   -26.1090    -4.7810 c3         1 0OA      -0.084400
     62 C34          9.5900   -27.0090    -5.7460 c3         1 0OA      -0.092100
     63 H35          4.2420    -9.7460    -0.4950 hc         1 0OA       0.040200
     64 H36          2.7670   -10.0070    -1.4370 hc         1 0OA       0.040200
     65 H37          4.1330   -10.5180    -3.4340 hc         1 0OA       0.042200
     66 H38          5.6070   -10.2580    -2.4920 hc         1 0OA       0.042200
     67 H39          4.9580   -12.0930    -0.9670 hc         1 0OA       0.040700
     68 H40          3.4830   -12.3530    -1.9090 hc         1 0OA       0.040700
     69 H41          6.3240   -12.6040    -2.9630 hc         1 0OA       0.040700
     70 H42          4.8490   -12.8650    -3.9050 hc         1 0OA       0.040700
     71 H43          4.1990   -14.7000    -2.3790 hc         1 0OA       0.040700
     72 H44          5.6740   -14.4390    -1.4370 hc         1 0OA       0.040700
     73 H45          5.5650   -15.2120    -4.3760 hc         1 0OA       0.040700
     74 H46          7.0400   -14.9510    -3.4340 hc         1 0OA       0.040700
     75 H47          6.3900   -16.7870    -1.9090 hc         1 0OA       0.040700
     76 H48          4.9160   -17.0480    -2.8510 hc         1 0OA       0.040700
     77 H49          7.7560   -17.2980    -3.9060 hc         1 0OA       0.040700
     78 H50          6.2810   -17.5600    -4.8480 hc         1 0OA       0.040700
     79 H51          5.6320   -19.3940    -3.3220 hc         1 0OA       0.040700
     80 H52          7.1070   -19.1330    -2.3800 hc         1 0OA       0.040700
     81 H53          6.9980   -19.9060    -5.3190 hc         1 0OA       0.040700
     82 H54          8.4730   -19.6450    -4.3770 hc         1 0OA       0.040700
     83 H55          6.3490   -21.7410    -3.7920 hc         1 0OA       0.040700
     84 H56          7.8240   -21.4790    -2.8510 hc         1 0OA       0.040700
     85 H57          9.1890   -21.9910    -4.8500 hc         1 0OA       0.040700
     86 H58          7.7140   -22.2530    -5.7900 hc         1 0OA       0.040700
     87 H59          8.5400   -23.8260    -3.3230 hc         1 0OA       0.040700
     88 H60          7.0660   -24.0870    -4.2640 hc         1 0OA       0.040700
     89 H61          9.9060   -24.3380    -5.3200 hc         1 0OA       0.040700
     90 H62          8.4310   -24.5990    -6.2610 hc         1 0OA       0.040700
     91 C8           6.1260     3.4000    -2.4200 c3         1 0OA      -0.067700
     92 C9           7.6410     3.4810    -2.2230 c3         1 0OA      -0.073400
     93 C10          8.3290     3.5480    -3.5880 c3         1 0OA      -0.078900
     94 C11          7.9860     2.2950    -4.3960 c3         1 0OA      -0.080400
     95 C12          6.4710     2.2140    -4.5920 c3         1 0OA      -0.078900
     96 C35          5.7820     2.1470    -3.2280 c3         1 0OA      -0.073400
     97 H14          5.7490     4.1760    -0.4510 h1         1 0OA       0.021200
     98 H25          5.7100     2.4100    -0.5580 h1         1 0OA       0.021200
     99 H541         7.7820   -26.4340    -4.7350 hc         1 0OA       0.039700
    100 H551         9.2580   -26.1720    -3.7940 hc         1 0OA       0.039700
    101 H561         9.1460   -26.9470    -6.7330 hc         1 0OA       0.032033
    102 H571        10.6220   -26.6830    -5.7940 hc         1 0OA       0.032033
    103 H581         9.5500   -28.0330    -5.3960 hc         1 0OA       0.032033
    104 H591         5.7860     4.2770    -2.9580 hc         1 0OA       0.053700
    105 H601         7.8830     4.3710    -1.6540 hc         1 0OA       0.049700
    106 H611         7.9820     2.6010    -1.6910 hc         1 0OA       0.049700
    107 H621         7.9850     4.4260    -4.1210 hc         1 0OA       0.035450
    108 H63          9.4020     3.6030    -3.4470 hc         1 0OA       0.035450
    109 H64          8.3270     1.4170    -3.8610 hc         1 0OA       0.034700
    110 H65          8.4720     2.3470    -5.3630 hc         1 0OA       0.034700
    111 H66          6.2300     1.3250    -5.1610 hc         1 0OA       0.035450
    112 H67          6.1300     3.0940    -5.1250 hc         1 0OA       0.035450
    113 H68          6.1250     1.2690    -2.6940 hc         1 0OA       0.049700
    114 H69          4.7090     2.0930    -3.3700 hc         1 0OA       0.049700
@<TRIPOS>BOND
     1     2     1 1
     2     3     2 1
     3     4     2 1
     4     4     5 1
     5     5     6 1
     6     5    24 1
     7     5    25 1
     8     6     7 1
     9     6     9 1
    10     6    26 1
    11     7     8 1
    12     8    27 1
    13     8    28 1
    14     8    29 1
    15     9    10 1
    16     9    30 1
    17     9    31 1
    18    10    11 1
    19    11    12 1
    20    11    32 1
    21    11    33 1
    22    12    34 1
    23    12    35 1
    24    12    47 1
    25    13    14 1
    26    13     2 1
    27    14    36 1
    28    15    16 1
    29    15    14 1
    30    15    37 1
    31    16    38 1
    32    17    15 1
    33    17    39 1
    34    18    17 1
    35    18    40 1
    36    19    14 1
    37    19    41 1
    38    20    19 1
    39    20    42 1
    40    20    43 1
    41    21    17 1
    42    21    20 1
    43    21    44 1
    44    22    21 1
    45    22    45 1
    46    23    19 1
    47    23    46 1
    48    46    91 1
    49    46    97 1
    50    46    98 1
    51    47    48 1
    52    47    63 1
    53    47    64 1
    54    48    49 1
    55    48    65 1
    56    48    66 1
    57    49    50 1
    58    49    67 1
    59    49    68 1
    60    50    51 1
    61    50    69 1
    62    50    70 1
    63    51    52 1
    64    51    71 1
    65    51    72 1
    66    52    53 1
    67    52    73 1
    68    52    74 1
    69    53    54 1
    70    53    75 1
    71    53    76 1
    72    54    55 1
    73    54    77 1
    74    54    78 1
    75    55    56 1
    76    55    79 1
    77    55    80 1
    78    56    57 1
    79    56    81 1
    80    56    82 1
    81    57    58 1
    82    57    83 1
    83    57    84 1
    84    58    59 1
    85    58    85 1
    86    58    86 1
    87    59    60 1
    88    59    87 1
    89    59    88 1
    90    60    61 1
    91    60    89 1
    92    60    90 1
    93    61    62 1
    94    91    92 1
    95    92    93 1
    96    93    94 1
    97    94    95 1
    98    95    96 1
    99    96    91 1
   100    61    99 1
   101    61   100 1
   102    62   101 1
   103    62   102 1
   104    62   103 1
   105    91   104 1
   106    92   105 1
   107    92   106 1
   108    93   107 1
   109    93   108 1
   110    94   109 1
   111    94   110 1
   112    95   111 1
   113    95   112 1
   114    96   113 1
   115    96   114 1
@<TRIPOS>SUBSTRUCTURE
     1 0OA         1 TEMP              0 ****  ****    0 ROOT
