@<TRIPOS>MOLECULE
0OB
   23    24     1     0     0
SMALL
bcc


@<TRIPOS>ATOM
      1 CAU          0.0000     0.0000     0.0000 c          1 0OB       0.980600
      2 OAC          1.2080     0.0000     0.0000 o          1 0OB      -0.900800
      3 CAM         -0.7540     0.0000     1.3050 c3         1 0OB      -0.134400
      4 CAN          0.2390     0.0010     2.4680 c3         1 0OB       0.059800
      5 CAW         -0.5150    -0.0000     3.7730 cc         1 0OB       0.070400
      6 CAK         -0.8870    -1.0890     4.4150 cd         1 0OB      -0.146200
      7 SAS         -1.0030     1.4490     4.6310 ss         1 0OB      -0.234500
      8 CAX         -1.6050    -0.8520     5.6570 ca         1 0OB      -0.053800
      9 CAY         -1.7530     0.5130     5.9190 ca         1 0OB       0.008900
     10 CAJ         -2.4190     0.9300     7.0760 ca         1 0OB      -0.054000
     11 CAH         -2.9300     0.0020     7.9510 ca         1 0OB      -0.121000
     12 CAG         -2.7880    -1.3550     7.6920 ca         1 0OB      -0.115000
     13 CAI         -2.1350    -1.7830     6.5760 ca         1 0OB      -0.071000
     14 H2          -1.3770    -0.8850     1.3620 hc         1 0OB       0.011700
     15 H3          -1.3770     0.8840     1.3620 hc         1 0OB       0.011700
     16 H4           0.8630    -0.8830     2.4100 hc         1 0OB       0.034700
     17 H5           0.8620     0.8860     2.4110 hc         1 0OB       0.034700
     18 H6          -0.6730    -2.0860     4.0470 ha         1 0OB       0.129000
     19 H7          -2.5330     1.9870     7.2830 ha         1 0OB       0.102000
     20 H8          -3.4520     0.3290     8.8420 ha         1 0OB       0.095000
     21 H9          -3.1940    -2.0800     8.3870 ha         1 0OB       0.094000
     22 H10         -2.0310    -2.8440     6.3870 ha         1 0OB       0.100000
     23 O1          -0.6700     0.0050    -1.1630 o          1 0OB      -0.900800
@<TRIPOS>BOND
     1     1     2 1   
     2     1     3 1   
     3     1    23 1   
     4     3     4 1   
     5     3    14 1   
     6     3    15 1   
     7     4     5 1   
     8     4    16 1   
     9     4    17 1   
    10     5     6 2   
    11     5     7 1   
    12     6     8 1   
    13     6    18 1   
    14     7     9 1   
    15     8     9 ar  
    16     8    13 ar  
    17     9    10 ar  
    18    10    11 ar  
    19    10    19 1   
    20    11    12 ar  
    21    11    20 1   
    22    12    13 ar  
    23    12    21 1   
    24    13    22 1   
@<TRIPOS>SUBSTRUCTURE
     1 0OB         1 TEMP              0 ****  ****    0 ROOT
