@<TRIPOS>MOLECULE
molecule
   23    24     1     0     0
SMALL
bcc


@<TRIPOS>ATOM
      1 CAU          0.0000     0.0000     0.0000 c          1 0OB       0.890600
      2 OAC          1.2080     0.0000     0.0000 o          1 0OB      -0.851300
      3 CAM         -0.7540     0.0000     1.3050 c3         1 0OB      -0.180400
      4 CAN          0.2390     0.0010     2.4680 c3         1 0OB      -0.008200
      5 CAW         -0.5150    -0.0000     3.7730 cc         1 0OB       0.026400
      6 CAK         -0.8870    -1.0890     4.4150 cd         1 0OB      -0.175200
      7 SAS         -1.0030     1.4490     4.6310 ss         1 0OB      -0.128500
      8 CAX         -1.6050    -0.8520     5.6570 ca         1 0OB      -0.058800
      9 CAY         -1.7530     0.5130     5.9190 ca         1 0OB      -0.026100
     10 CAJ         -2.4190     0.9300     7.0760 ca         1 0OB      -0.093000
     11 CAH         -2.9300     0.0020     7.9510 ca         1 0OB      -0.143000
     12 CAG         -2.7880    -1.3550     7.6920 ca         1 0OB      -0.142000
     13 CAI         -2.1350    -1.7830     6.5760 ca         1 0OB      -0.100000
     14 H2          -1.3770    -0.8850     1.3620 hc         1 0OB       0.036200
     15 H3          -1.3770     0.8840     1.3620 hc         1 0OB       0.036200
     16 H4           0.8620     0.8860     2.4110 hc         1 0OB       0.064700
     17 H5           0.8630    -0.8830     2.4100 hc         1 0OB       0.064700
     18 H6          -0.6730    -2.0860     4.0470 ha         1 0OB       0.154000
     19 H7          -2.5330     1.9870     7.2830 ha         1 0OB       0.125000
     20 H8          -3.4520     0.3290     8.8420 ha         1 0OB       0.119000
     21 H9          -3.1940    -2.0800     8.3870 ha         1 0OB       0.117000
     22 H10         -2.0310    -2.8440     6.3870 ha         1 0OB       0.126000
     23 O1          -0.6700     0.0050    -1.1630 o          1 0OB      -0.851300
@<TRIPOS>BOND
     1     3     4 1
     2     3     1 1
     3     4     5 1
     4     1     2 1
     5     5     6 2
     6     5     7 1
     7     6     8 1
     8     7     9 1
     9     8     9 ar
    10     8    13 ar
    11     9    10 ar
    12    13    12 ar
    13    10    11 ar
    14    12    11 ar
    15     3    14 1
    16     3    15 1
    17     4    16 1
    18     4    17 1
    19     6    18 1
    20    10    19 1
    21    11    20 1
    22    12    21 1
    23    13    22 1
    24     1    23 1
@<TRIPOS>SUBSTRUCTURE
     1 0OB         1 TEMP              0 ****  ****    0 ROOT
