@<TRIPOS>MOLECULE
molecule
   21    21     1     0     0
SMALL
bcc


@<TRIPOS>ATOM
      1 CAA          0.0000     0.0000     0.0000 c3         1 0OC       0.092100
      2 NAJ          1.4730     0.0000     0.0000 nx         1 0OC      -0.580300
      3 CAB          2.2500     0.0000     1.2360 c3         1 0OC       0.092100
      4 SAK          2.2570     0.7940    -1.4230 sy         1 0OC       1.561200
      5 OAC          1.2200     1.5250    -2.3320 o          1 0OC      -0.556800
      6 OAD          3.5440     1.5140    -1.0460 o          1 0OC      -0.556800
      7 CAI          2.6590    -0.7550    -2.2640 cc         1 0OC      -0.634500
      8 CAF          3.5880    -1.6440    -1.7930 cc         1 0OC      -0.004000
      9 CAE          3.7750    -2.8080    -2.5300 cd         1 0OC      -0.230100
     10 SAH          2.6670    -2.5090    -3.9130 ss         1 0OC       0.404200
     11 CAG          2.0450    -0.9720    -3.4500 cd         1 0OC      -0.109100
     12 H1          -0.3610    -0.5880     0.8350 hx         1 0OC       0.081867
     13 H2          -0.3610    -0.4290    -0.9270 hx         1 0OC       0.081867
     14 H3          -0.3610     1.0170     0.0920 hx         1 0OC       0.081867
     15 H4           1.9660     0.8530     1.8410 hx         1 0OC       0.081867
     16 H5           3.3050     0.0600     0.9990 hx         1 0OC       0.081867
     17 H6           2.0540    -0.9130     1.7860 hx         1 0OC       0.081867
     18 H7           4.1170    -1.4710    -0.8640 ha         1 0OC       0.196000
     19 H8           4.6770    -3.4080    -2.5550 h4         1 0OC       0.219000
     20 H9           1.3220    -0.3500    -3.9630 h4         1 0OC       0.215000
     21 HAJ1         1.6150    -0.9500    -0.2800 hn         1 0OC       0.400800
@<TRIPOS>BOND
     1     1     2 1   
     2     3     2 1   
     3     2     4 1   
     4     5     4 2   
     5     4     6 2   
     6     4     7 1   
     7     7    11 2   
     8     7     8 1   
     9    11    10 1   
    10     8     9 2   
    11     9    10 1   
    12     1    12 1   
    13     1    13 1   
    14     1    14 1   
    15     3    15 1   
    16     3    16 1   
    17     3    17 1   
    18     8    18 1   
    19     9    19 1   
    20    11    20 1   
    21    21     2 1   
@<TRIPOS>SUBSTRUCTURE
     1 0OC         1 TEMP              0 ****  ****    0 ROOT
