@<TRIPOS>MOLECULE
molecule
   20    20     1     0     0
SMALL
bcc


@<TRIPOS>ATOM
      1 CAA          0.0000     0.0000     0.0000 c3         1 0OC       0.225600
      2 NAJ          1.4650     0.0000     0.0000 n3         1 0OC      -0.823500
      3 CAB          2.1970     0.0000     1.2690 c3         1 0OC       0.225600
      4 SAK          2.2930    -0.0000    -1.4340 sy         1 0OC       1.439200
      5 OAC          3.5750    -0.5440    -1.1570 o          1 0OC      -0.633800
      6 OAD          1.4120    -0.5440    -2.4070 o          1 0OC      -0.633800
      7 CAI          2.5540     1.6830    -1.8850 cc         1 0OC      -0.334500
      8 CAF          1.6510     2.3960    -2.6550 cc         1 0OC      -0.091000
      9 CAE          1.9990     3.6590    -2.9060 cd         1 0OC      -0.078100
     10 SAH          3.5470     4.0050    -2.1450 ss         1 0OC      -0.133800
     11 CAG          3.6330     2.3680    -1.5070 cd         1 0OC       0.044900
     12 H1          -0.3610     0.0090    -1.0210 h1         1 0OC       0.044367
     13 H2          -0.3610    -0.8890     0.5030 h1         1 0OC       0.044367
     14 H3          -0.3610     0.8800     0.5190 h1         1 0OC       0.044367
     15 H4           2.6910     0.9550     1.4010 h1         1 0OC       0.044367
     16 H5           1.5040    -0.1640     2.0860 h1         1 0OC       0.044367
     17 H6           2.9370    -0.7910     1.2590 h1         1 0OC       0.044367
     18 H7           0.7300     1.9620    -3.0260 ha         1 0OC       0.164000
     19 H8           1.4190     4.3630    -3.4890 h4         1 0OC       0.176000
     20 H9           4.4420     1.9750    -0.9030 h4         1 0OC       0.187000
@<TRIPOS>BOND
     1     1     2 1   
     2     3     2 1   
     3     2     4 1   
     4     5     4 2   
     5     4     6 2   
     6     4     7 1   
     7     7    11 2   
     8     7     8 1   
     9    11    10 1   
    10     8     9 2   
    11     9    10 1   
    12     1    12 1   
    13     1    13 1   
    14     1    14 1   
    15     3    15 1   
    16     3    16 1   
    17     3    17 1   
    18     8    18 1   
    19     9    19 1   
    20    11    20 1   
@<TRIPOS>SUBSTRUCTURE
     1 0OC         1 TEMP              0 ****  ****    0 ROOT
