@<TRIPOS>MOLECULE
0OE
   60    65     1     0     0
SMALL
bcc


@<TRIPOS>ATOM
      1 N1           0.2040    -0.4350     0.0560 na         1 0OE      -0.011600
      2 N2           1.5000    -0.7350     0.0900 nc         1 0OE      -0.513800
      3 C3           1.8660    -0.7600     1.3970 cd         1 0OE       0.332200
      4 C4           0.7260    -0.4490     2.2350 cd         1 0OE      -0.264200
      5 C5          -0.3460    -0.2530     1.3360 cc         1 0OE      -0.031300
      6 C6          -1.7510     0.0330     1.5620 ca         1 0OE      -0.031000
      7 C7          -2.4210    -0.5970     2.6200 ca         1 0OE      -0.086000
      8 C8          -3.7790    -0.3370     2.8240 ca         1 0OE       0.012400
      9 C9          -4.4730     0.5420     1.9870 ca         1 0OE      -0.120000
     10 C10         -3.7980     1.1680     0.9410 ca         1 0OE      -0.128000
     11 C11         -2.4440     0.9190     0.7240 ca         1 0OE      -0.124000
     12 C12          0.7580    -0.3860     3.6780 cd         1 0OE       0.478400
     13 N13          0.2150     0.7200     4.4110 na         1 0OE      -0.161300
     14 C14          0.5000     0.4450     5.7640 ca         1 0OE      -0.091200
     15 C15          1.1280    -0.8610     5.7950 ca         1 0OE       0.063400
     16 N16          1.2670    -1.3450     4.4760 nc         1 0OE      -0.545100
     17 C17          0.2420     1.1470     6.9450 ca         1 0OE      -0.145000
     18 C18          0.6150     0.5530     8.1410 ca         1 0OE      -0.104000
     19 C19          1.2330    -0.7170     8.1950 cp         1 0OE      -0.011000
     20 C20          1.4860    -1.4320     7.0220 ca         1 0OE      -0.072000
     21 C21          1.6060    -1.2770     9.4930 cp         1 0OE      -0.092000
     22 C22          2.1440    -0.4530    10.4930 ca         1 0OE      -0.141500
     23 C23          2.4950    -0.9850    11.7300 ca         1 0OE      -0.113000
     24 C24          2.3130    -2.3460    11.9970 ca         1 0OE      -0.109600
     25 C25          1.7780    -3.1680    11.0000 ca         1 0OE      -0.113000
     26 C26          1.4290    -2.6430     9.7590 ca         1 0OE      -0.141500
     27 C27          2.6910    -2.9210    13.3550 c          1 0OE       0.906200
     28 O28          3.1650    -2.1300    14.2190 o          1 0OE      -0.828300
     29 O29          2.5100    -4.1570    13.5440 o          1 0OE      -0.828300
     30 Cl          -4.5950    -1.0990     4.1040 cl         1 0OE      -0.079400
     31 C31         -0.0160     2.0320     3.8890 c3         1 0OE       0.043300
     32 C32          1.2160     2.9390     3.8240 c3         1 0OE      -0.132400
     33 C33          0.8500     4.3300     3.3110 c3         1 0OE       0.040300
     34 N34          0.5140     4.4080     1.9190 na         1 0OE      -0.203900
     35 C35         -0.7750     4.3910     1.3620 cc         1 0OE       0.382400
     36 N36         -0.7280     4.4120     0.0130 nd         1 0OE      -0.680000
     37 C37          0.6260     4.4280    -0.3200 cd         1 0OE       0.282200
     38 C38          1.4110     4.4180     0.8470 cc         1 0OE      -0.248600
     39 H1          -0.2820    -0.3600    -0.8070 hn         1 0OE       0.323700
     40 H2           2.8780    -0.9990     1.7270 h4         1 0OE       0.058100
     41 H3          -1.8710    -1.2840     3.2860 ha         1 0OE       0.175000
     42 H4          -5.5430     0.7400     2.1530 ha         1 0OE       0.146000
     43 H5          -4.3360     1.8660     0.2820 ha         1 0OE       0.141000
     44 H6          -1.9200     1.4370    -0.0940 ha         1 0OE       0.146000
     45 H7          -0.2440     2.1310     6.9260 ha         1 0OE       0.123000
     46 H8           0.4200     1.0810     9.0890 ha         1 0OE       0.142000
     47 H9           1.9620    -2.4230     7.0590 ha         1 0OE       0.157000
     48 H10          2.3000     0.6160    10.2910 ha         1 0OE       0.109000
     49 H11          2.9230    -0.3520    12.5240 ha         1 0OE       0.153500
     50 H12          1.6400    -4.2380    11.2260 ha         1 0OE       0.153500
     51 H13          1.0020    -3.2970     8.9850 ha         1 0OE       0.109000
     52 H15         -0.4480     1.9170     2.8520 h1         1 0OE       0.063200
     53 H16         -0.7910     2.5230     4.5470 h1         1 0OE       0.063200
     54 H17          2.0020     2.4760     3.1730 hc         1 0OE       0.071200
     55 H18          1.6530     3.0590     4.8510 hc         1 0OE       0.071200
     56 H19          1.7310     5.0130     3.4910 h1         1 0OE       0.062200
     57 H20         -0.0270     4.7240     3.9020 h1         1 0OE       0.062200
     58 H21         -1.6810     4.3780     1.9740 h5         1 0OE       0.059100
     59 H22          0.9580     4.4490    -1.3570 h4         1 0OE       0.039100
     60 H23          2.4890     4.4200     0.9900 h4         1 0OE       0.179000
@<TRIPOS>BOND
     1     1     2 1   
     2     1     5 1   
     3     1    39 1   
     4     2     3 2   
     5     3     4 1   
     6     3    40 1   
     7     4     5 2   
     8     4    12 1   
     9     5     6 1   
    10     6     7 ar  
    11     6    11 ar  
    12     7     8 ar  
    13     7    41 1   
    14     8     9 ar  
    15     8    30 1   
    16     9    10 ar  
    17     9    42 1   
    18    10    11 ar  
    19    10    43 1   
    20    11    44 1   
    21    12    13 1   
    22    12    16 2   
    23    13    14 1   
    24    13    31 1   
    25    14    15 ar  
    26    14    17 ar  
    27    15    16 1   
    28    15    20 ar  
    29    17    18 ar  
    30    17    45 1   
    31    18    19 ar  
    32    18    46 1   
    33    19    20 ar  
    34    19    21 1   
    35    20    47 1   
    36    21    22 ar  
    37    21    26 ar  
    38    22    23 ar  
    39    22    48 1   
    40    23    24 ar  
    41    23    49 1   
    42    24    25 ar  
    43    24    27 1   
    44    25    26 ar  
    45    25    50 1   
    46    26    51 1   
    47    27    28 1   
    48    27    29 1   
    49    31    32 1   
    50    31    52 1   
    51    31    53 1   
    52    32    33 1   
    53    32    54 1   
    54    32    55 1   
    55    33    34 1   
    56    33    56 1   
    57    33    57 1   
    58    34    35 1   
    59    34    38 1   
    60    35    36 2   
    61    35    58 1   
    62    36    37 1   
    63    37    38 2   
    64    37    59 1   
    65    38    60 1   
@<TRIPOS>SUBSTRUCTURE
     1 0OE         1 TEMP              0 ****  ****    0 ROOT
