@<TRIPOS>MOLECULE
0OE
   60    65     1     0     0
SMALL
bcc


@<TRIPOS>ATOM
      1 N1           0.0000     0.0000     0.0000 na         1 0OE       0.459400
      2 N2           1.3990     0.0000     0.0000 nc         1 0OE      -0.668800
      3 C3           1.8290     0.0000     1.2320 cd         1 0OE       0.396200
      4 C4           0.7130    -0.0000     2.0940 cd         1 0OE      -0.313200
      5 C5          -0.4250     0.0050     1.2930 cc         1 0OE      -0.153300
      6 C6          -1.8270     0.0080     1.7580 ca         1 0OE      -0.004000
      7 C7          -2.7610    -0.8480     1.1730 ca         1 0OE      -0.095000
      8 C8          -4.0700    -0.8410     1.6120 ca         1 0OE      -0.030600
      9 C9          -4.4560     0.0120     2.6320 ca         1 0OE      -0.087000
     10 C10         -3.5340     0.8640     3.2150 ca         1 0OE      -0.081000
     11 C11         -2.2220     0.8620     2.7890 ca         1 0OE      -0.059000
     12 C12          0.7460    -0.0010     3.5700 cd         1 0OE       0.304400
     13 N13          1.5210     0.8240     4.3400 na         1 0OE       0.297700
     14 C14          1.2640     0.5110     5.6620 ca         1 0OE      -0.275200
     15 C15          0.3120    -0.5250     5.6400 ca         1 0OE       0.071400
     16 N16          0.0340    -0.7890     4.3390 nc         1 0OE      -0.506100
     17 C17          1.7380     0.9970     6.8730 ca         1 0OE      -0.104000
     18 C18          1.2830     0.4720     8.0490 ca         1 0OE      -0.088000
     19 C19          0.3370    -0.5590     8.0460 cp         1 0OE       0.002000
     20 C20         -0.1520    -1.0570     6.8460 ca         1 0OE      -0.062000
     21 C21         -0.1490    -1.1200     9.3300 cp         1 0OE      -0.087000
     22 C22          0.3400    -0.6190    10.5380 ca         1 0OE      -0.128000
     23 C23         -0.1080    -1.1400    11.7300 ca         1 0OE      -0.076500
     24 C24         -1.0540    -2.1690    11.7320 ca         1 0OE      -0.086600
     25 C25         -1.5420    -2.6700    10.5210 ca         1 0OE      -0.076500
     26 C26         -1.0960    -2.1440     9.3300 ca         1 0OE      -0.128000
     27 C27         -1.5350    -2.7280    13.0100 c          1 0OE       0.970200
     28 O28         -2.4460    -3.7210    13.0100 o          1 0OE      -0.882300
     29 O29         -1.1110    -2.2930    14.0610 o          1 0OE      -0.882300
     30 Cl          -5.2340    -1.9050     0.8860 cl         1 0OE      -0.033400
     31 C31          2.4500     1.8470     3.8560 c3         1 0OE      -0.033700
     32 C32          1.7020     3.1690     3.6700 c3         1 0OE      -0.071400
     33 C33          2.6720     4.2380     3.1630 c3         1 0OE      -0.038700
     34 N34          1.9560     5.5030     2.9860 na         1 0OE       0.286100
     35 C35          1.3270     5.9170     1.8650 cc         1 0OE       0.220400
     36 N36          0.8050     7.0930     2.0880 nd         1 0OE      -0.625000
     37 C37          1.0800     7.4670     3.3470 cd         1 0OE       0.322200
     38 C38          1.7940     6.4840     3.9270 cc         1 0OE      -0.430600
     39 H1          -0.5870     0.0010    -0.8110 hn         1 0OE       0.150700
     40 H2           2.8670    -0.0020     1.5410 h4         1 0OE       0.004100
     41 H3          -2.4600    -1.5160     0.3750 ha         1 0OE       0.110000
     42 H4          -5.4840     0.0160     2.9720 ha         1 0OE       0.115000
     43 H5          -3.8410     1.5280     4.0140 ha         1 0OE       0.112000
     44 H6          -1.5020     1.5300     3.2460 ha         1 0OE       0.113000
     45 H7           2.4700     1.7950     6.8860 ha         1 0OE       0.090000
     46 H8           1.6590     0.8540     8.9910 ha         1 0OE       0.118000
     47 H9          -0.8840    -1.8550     6.8440 ha         1 0OE       0.128000
     48 H10          1.0730     0.1790    10.5370 ha         1 0OE       0.093000
     49 H11          0.2710    -0.7510    12.6680 ha         1 0OE       0.126000
     50 H12         -2.2760    -3.4660    10.5210 ha         1 0OE       0.126000
     51 H13         -1.4740    -2.5320     8.3920 ha         1 0OE       0.093000
     52 H15          2.8700     1.5340     2.9070 h1         1 0OE       0.036200
     53 H16          3.2470     1.9820     4.5760 h1         1 0OE       0.036200
     54 H17          1.2830     3.4830     4.6190 hc         1 0OE       0.039700
     55 H18          0.9040     3.0350     2.9500 hc         1 0OE       0.039700
     56 H19          3.4700     4.3730     3.8840 h1         1 0OE       0.035700
     57 H20          3.0920     3.9240     2.2150 h1         1 0OE       0.035700
     58 H21          1.2660     5.3650     0.9350 h5         1 0OE       0.021100
     59 H22          0.7750     8.3950     3.8160 h4         1 0OE       0.001100
     60 H23          2.1740     6.4750     4.9420 h4         1 0OE       0.154000
@<TRIPOS>BOND
     1     1     2 1   
     2     1     5 1   
     3     1    39 1   
     4     2     3 2   
     5     3     4 1   
     6     3    40 1   
     7     4     5 2   
     8     4    12 1   
     9     5     6 1   
    10     6     7 ar  
    11     6    11 ar  
    12     7     8 ar  
    13     7    41 1   
    14     8     9 ar  
    15     8    30 1   
    16     9    10 ar  
    17     9    42 1   
    18    10    11 ar  
    19    10    43 1   
    20    11    44 1   
    21    12    13 1   
    22    12    16 2   
    23    13    14 1   
    24    13    31 1   
    25    14    15 ar  
    26    14    17 ar  
    27    15    16 1   
    28    15    20 ar  
    29    17    18 ar  
    30    17    45 1   
    31    18    19 ar  
    32    18    46 1   
    33    19    20 ar  
    34    19    21 1   
    35    20    47 1   
    36    21    22 ar  
    37    21    26 ar  
    38    22    23 ar  
    39    22    48 1   
    40    23    24 ar  
    41    23    49 1   
    42    24    25 ar  
    43    24    27 1   
    44    25    26 ar  
    45    25    50 1   
    46    26    51 1   
    47    27    28 1   
    48    27    29 1   
    49    31    32 1   
    50    31    52 1   
    51    31    53 1   
    52    32    33 1   
    53    32    54 1   
    54    32    55 1   
    55    33    34 1   
    56    33    56 1   
    57    33    57 1   
    58    34    35 1   
    59    34    38 1   
    60    35    36 2   
    61    35    58 1   
    62    36    37 1   
    63    37    38 2   
    64    37    59 1   
    65    38    60 1   
@<TRIPOS>SUBSTRUCTURE
     1 0OE         1 TEMP              0 ****  ****    0 ROOT
