@<TRIPOS>MOLECULE
molecule
   60    65     1     0     0
SMALL
bcc


@<TRIPOS>ATOM
      1 N1           0.0000     0.0000     0.0000 na         1 0OE      -0.036600
      2 N2           1.3990     0.0000     0.0000 nc         1 0OE      -0.514800
      3 C3           1.8290     0.0000     1.2320 cd         1 0OE       0.346200
      4 C4           0.7130    -0.0000     2.0940 cd         1 0OE      -0.309200
      5 C5          -0.4250     0.0050     1.2930 cc         1 0OE       0.021700
      6 C6          -1.8270     0.0080     1.7580 ca         1 0OE      -0.024000
      7 C7          -2.7610    -0.8480     1.1730 ca         1 0OE      -0.109000
      8 C8          -4.0700    -0.8410     1.6120 ca         1 0OE       0.026400
      9 C9          -4.4560     0.0120     2.6320 ca         1 0OE      -0.106000
     10 C10         -3.5340     0.8640     3.2150 ca         1 0OE      -0.114000
     11 C11         -2.2220     0.8620     2.7890 ca         1 0OE      -0.076000
     12 C12          0.7460    -0.0010     3.5700 cd         1 0OE       0.486400
     13 N13          1.5210     0.8240     4.3400 na         1 0OE      -0.158300
     14 C14          1.2640     0.5110     5.6620 ca         1 0OE      -0.105200
     15 C15          0.3120    -0.5250     5.6400 ca         1 0OE       0.094400
     16 N16          0.0340    -0.7890     4.3390 nc         1 0OE      -0.582100
     17 C17          1.7380     0.9970     6.8730 ca         1 0OE      -0.141000
     18 C18          1.2830     0.4720     8.0490 ca         1 0OE      -0.103000
     19 C19          0.3370    -0.5590     8.0460 cp         1 0OE      -0.013000
     20 C20         -0.1520    -1.0570     6.8460 ca         1 0OE      -0.080000
     21 C21         -0.1490    -1.1200     9.3300 cp         1 0OE      -0.083000
     22 C22          0.3400    -0.6190    10.5380 ca         1 0OE      -0.143000
     23 C23         -0.1080    -1.1400    11.7300 ca         1 0OE      -0.104500
     24 C24         -1.0540    -2.1690    11.7320 ca         1 0OE      -0.087600
     25 C25         -1.5420    -2.6700    10.5210 ca         1 0OE      -0.104500
     26 C26         -1.0960    -2.1440     9.3300 ca         1 0OE      -0.143000
     27 C27         -1.5350    -2.7280    13.0100 c          1 0OE       0.879200
     28 O28         -2.4460    -3.7210    13.0100 o          1 0OE      -0.834300
     29 O29         -1.1110    -2.2930    14.0610 o          1 0OE      -0.834300
     30 Cl          -5.2340    -1.9050     0.8860 cl         1 0OE      -0.112400
     31 C31          2.4500     1.8470     3.8560 c3         1 0OE       0.056300
     32 C32          1.7020     3.1690     3.6700 c3         1 0OE      -0.127400
     33 C33          2.6720     4.2380     3.1630 c3         1 0OE       0.042300
     34 N34          1.9560     5.5030     2.9860 na         1 0OE      -0.186900
     35 C35          1.3270     5.9170     1.8650 cd         1 0OE       0.392400
     36 N36          0.8050     7.0930     2.0880 nc         1 0OE      -0.701000
     37 C37          1.0800     7.4670     3.3470 cc         1 0OE       0.308200
     38 C38          1.7940     6.4840     3.9270 cd         1 0OE      -0.274600
     39 H1          -0.5870     0.0010    -0.8110 hn         1 0OE       0.335700
     40 H2           2.8670    -0.0020     1.5410 h4         1 0OE       0.051100
     41 H3          -2.4600    -1.5160     0.3750 ha         1 0OE       0.141000
     42 H4          -5.4840     0.0160     2.9720 ha         1 0OE       0.146000
     43 H5          -3.8410     1.5280     4.0140 ha         1 0OE       0.146000
     44 H6          -1.5020     1.5300     3.2460 ha         1 0OE       0.147000
     45 H7           2.4700     1.7950     6.8860 ha         1 0OE       0.113000
     46 H8           1.6590     0.8540     8.9910 ha         1 0OE       0.142000
     47 H9          -0.8840    -1.8550     6.8440 ha         1 0OE       0.154000
     48 H10          1.0730     0.1790    10.5370 ha         1 0OE       0.109500
     49 H11          0.2710    -0.7510    12.6680 ha         1 0OE       0.152500
     50 H12         -2.2760    -3.4660    10.5210 ha         1 0OE       0.152500
     51 H13         -1.4740    -2.5320     8.3920 ha         1 0OE       0.109500
     52 H15          3.2470     1.9820     4.5760 h1         1 0OE       0.057700
     53 H16          2.8700     1.5340     2.9070 h1         1 0OE       0.057700
     54 H17          1.2830     3.4830     4.6190 hc         1 0OE       0.069700
     55 H18          0.9040     3.0350     2.9500 hc         1 0OE       0.069700
     56 H19          3.0920     3.9240     2.2150 h1         1 0OE       0.061200
     57 H20          3.4700     4.3730     3.8840 h1         1 0OE       0.061200
     58 H21          1.2660     5.3650     0.9350 h5         1 0OE       0.063100
     59 H22          0.7750     8.3950     3.8160 h4         1 0OE       0.039100
     60 H23          2.1740     6.4750     4.9420 h4         1 0OE       0.174000
@<TRIPOS>BOND
     1    30     8 1   
     2     9     8 ar  
     3     9    10 ar  
     4     8     7 ar  
     5    10    11 ar  
     6     7     6 ar  
     7    11     6 ar  
     8     6     5 1   
     9    29    27 1   
    10    25    26 ar  
    11    25    24 ar  
    12    26    21 ar  
    13    27    24 1   
    14    27    28 1   
    15    24    23 ar  
    16     5     1 1   
    17     5     4 2   
    18    21    19 1   
    19    21    22 ar  
    20     1     2 1   
    21    20    19 ar  
    22    20    15 ar  
    23    19    18 ar  
    24    15    16 1   
    25    15    14 ar  
    26    18    17 ar  
    27    16    12 2   
    28    23    22 ar  
    29    14    17 ar  
    30    14    13 1   
    31    12    13 1   
    32    12     4 1   
    33    13    31 1   
    34     4     3 1   
    35    31    32 1   
    36     2     3 2   
    37    36    35 2   
    38    36    37 1   
    39    35    34 1   
    40    32    33 1   
    41    34    33 1   
    42    34    38 1   
    43    37    38 2   
    44     1    39 1   
    45     3    40 1   
    46     7    41 1   
    47     9    42 1   
    48    10    43 1   
    49    11    44 1   
    50    17    45 1   
    51    18    46 1   
    52    20    47 1   
    53    22    48 1   
    54    23    49 1   
    55    25    50 1   
    56    26    51 1   
    57    31    52 1   
    58    31    53 1   
    59    32    54 1   
    60    32    55 1   
    61    33    56 1   
    62    33    57 1   
    63    35    58 1   
    64    37    59 1   
    65    38    60 1   
@<TRIPOS>SUBSTRUCTURE
     1 0OE         1 TEMP              0 ****  ****    0 ROOT
