@<TRIPOS>MOLECULE
0OF
   60    64     1     0     0
SMALL
bcc


@<TRIPOS>ATOM
      1 C1           0.0000     0.0000     0.0000 c3         1 0OF      -0.131400
      2 C2           1.5070     0.0000     0.0000 c          1 0OF       0.615500
      3 N3           2.1960     0.0000     1.1380 n          1 0OF       0.017000
      4 C4           1.6500     0.0420     2.4170 ca         1 0OF      -0.051400
      5 C5           0.5270    -0.6750     2.8000 ca         1 0OF      -0.104400
      6 N6          -0.1810    -1.5170     1.9460 n          1 0OF       0.144800
      7 C7          -0.4730    -1.2630     0.6730 c          1 0OF       0.601500
      8 O8           2.1030    -0.0010    -1.0560 o          1 0OF      -0.652500
      9 O9          -1.1320    -2.0620     0.0430 o          1 0OF      -0.638500
     10 C10          0.0580    -0.5640     4.1100 ca         1 0OF      -0.048000
     11 C11          0.6970     0.2470     5.0220 ca         1 0OF      -0.202300
     12 C12          1.8170     0.9620     4.6400 ca         1 0OF      -0.029000
     13 C13          2.2900     0.8620     3.3490 ca         1 0OF      -0.122000
     14 C14         -0.6220    -2.7370     2.4720 ca         1 0OF      -0.117400
     15 C15          0.2400    -3.8240     2.5260 ca         1 0OF      -0.079000
     16 C16         -0.2000    -5.0260     3.0460 ca         1 0OF      -0.091500
     17 C17         -1.4960    -5.1470     3.5120 ca         1 0OF      -0.081000
     18 C18         -2.3570    -4.0670     3.4600 ca         1 0OF      -0.091500
     19 C19         -1.9220    -2.8600     2.9460 ca         1 0OF      -0.079000
     20 C20          0.1770     0.3550     6.4320 c3         1 0OF       0.643200
     21 F21          0.7840    -0.6230     7.2280 f          1 0OF      -0.206633
     22 F22          0.4730     1.6230     6.9430 f          1 0OF      -0.206633
     23 F23         -1.2090     0.1630     6.4330 f          1 0OF      -0.206633
     24 C24          3.6570    -0.0500     1.0350 c3         1 0OF       0.012000
     25 C25          4.1100    -1.5050     0.9010 c3         1 0OF      -0.014100
     26 C26         -0.5090     1.1990     0.7560 ca         1 0OF      -0.073300
     27 C27          0.2190     2.3740     0.7550 ca         1 0OF      -0.144000
     28 C28         -0.2460     3.4850     1.4450 ca         1 0OF       0.141100
     29 C29         -1.4430     3.4180     2.1380 ca         1 0OF      -0.138000
     30 C30         -2.1770     2.2340     2.1410 cp         1 0OF       0.007000
     31 C31         -1.7030     1.1240     1.4450 ca         1 0OF      -0.123000
     32 O32          0.4730     4.6380     1.4410 oh         1 0OF      -0.500100
     33 C33         -3.4610     2.1560     2.8810 cp         1 0OF      -0.158300
     34 C34         -4.2000     0.9740     2.8940 ca         1 0OF       0.406200
     35 N35         -5.3390     0.9030     3.5520 nb         1 0OF      -0.577000
     36 C36         -5.8240     1.9340     4.2180 ca         1 0OF       0.408200
     37 C37         -5.1500     3.1400     4.2520 ca         1 0OF      -0.216300
     38 C38         -3.9450     3.2640     3.5820 ca         1 0OF      -0.063000
     39 H1          -0.3630     0.0250    -1.0200 hc         1 0OF       0.099700
     40 H2          -0.8200    -1.1230     4.4130 ha         1 0OF       0.139000
     41 H3           2.3220     1.6010     5.3550 ha         1 0OF       0.123000
     42 H4           3.1680     1.4240     3.0550 ha         1 0OF       0.129000
     43 H5           1.2550    -3.7300     2.1610 ha         1 0OF       0.110000
     44 H6           0.4710    -5.8750     3.0880 ha         1 0OF       0.108500
     45 H7          -1.8390    -6.0920     3.9170 ha         1 0OF       0.105000
     46 H8          -3.3710    -4.1640     3.8280 ha         1 0OF       0.108500
     47 H9          -2.5970    -2.0130     2.9050 ha         1 0OF       0.110000
     48 H10          3.9770     0.5100     0.1650 h1         1 0OF       0.042700
     49 H11          4.0970     0.3840     1.9250 h1         1 0OF       0.042700
     50 H12          3.8050    -2.0610     1.7790 hc         1 0OF       0.014033
     51 H13          3.6580    -1.9440     0.0200 hc         1 0OF       0.014033
     52 H14          5.1890    -1.5400     0.8090 hc         1 0OF       0.014033
     53 H15          1.1560     2.4290     0.2140 ha         1 0OF       0.127000
     54 H16         -1.8070     4.2840     2.6780 ha         1 0OF       0.125000
     55 H17         -2.2720     0.2020     1.4450 ha         1 0OF       0.128000
     56 H18          0.1900     5.1820     0.7240 ho         1 0OF       0.408000
     57 H19         -3.8340     0.1060     2.3590 h4         1 0OF      -0.012900
     58 H20         -6.7650     1.8330     4.7440 h4         1 0OF      -0.018900
     59 H21         -5.5570     3.9790     4.8040 ha         1 0OF       0.114000
     60 H22         -3.3960     4.1980     3.5920 ha         1 0OF       0.117000
@<TRIPOS>BOND
     1     1     2 1   
     2     1     7 1   
     3     1    26 1   
     4     1    39 1   
     5     2     3 1   
     6     2     8 2   
     7     3     4 1   
     8     3    24 1   
     9     4     5 ar  
    10     4    13 ar  
    11     5     6 1   
    12     5    10 ar  
    13     6     7 1   
    14     6    14 1   
    15     7     9 2   
    16    10    11 ar  
    17    10    40 1   
    18    11    12 ar  
    19    11    20 1   
    20    12    13 ar  
    21    12    41 1   
    22    13    42 1   
    23    14    15 ar  
    24    14    19 ar  
    25    15    16 ar  
    26    15    43 1   
    27    16    17 ar  
    28    16    44 1   
    29    17    18 ar  
    30    17    45 1   
    31    18    19 ar  
    32    18    46 1   
    33    19    47 1   
    34    20    21 1   
    35    20    22 1   
    36    20    23 1   
    37    24    25 1   
    38    24    48 1   
    39    24    49 1   
    40    25    50 1   
    41    25    51 1   
    42    25    52 1   
    43    26    27 ar  
    44    26    31 ar  
    45    27    28 ar  
    46    27    53 1   
    47    28    29 ar  
    48    28    32 1   
    49    29    30 ar  
    50    29    54 1   
    51    30    31 ar  
    52    30    33 1   
    53    31    55 1   
    54    32    56 1   
    55    33    34 ar  
    56    33    38 ar  
    57    34    35 ar  
    58    34    57 1   
    59    35    36 ar  
    60    36    37 ar  
    61    36    58 1   
    62    37    38 ar  
    63    37    59 1   
    64    38    60 1   
@<TRIPOS>SUBSTRUCTURE
     1 0OF         1 TEMP              0 ****  ****    0 ROOT
