@<TRIPOS>MOLECULE
0OF
   60    64     1     0     0
SMALL
bcc


@<TRIPOS>ATOM
      1 C1          -0.0040    -0.0750    -0.0000 c3         1 0OF      -0.146400
      2 C2           1.5260    -0.0480    -0.0410 c          1 0OF       0.710500
      3 N3           2.1860     0.1470     1.1770 n          1 0OF      -0.392000
      4 C4           1.4830     0.1890     2.4000 ca         1 0OF       0.073600
      5 C5           0.3310     1.0180     2.5820 ca         1 0OF       0.019600
      6 N6          -0.1630     1.8610     1.5540 n          1 0OF      -0.302200
      7 C7          -0.4520     1.3630     0.2760 c          1 0OF       0.716500
      8 O8           2.1740    -0.1660    -1.0920 o          1 0OF      -0.589500
      9 O9          -1.0020     2.0700    -0.5780 o          1 0OF      -0.585500
     10 C10         -0.3300     1.0080     3.8290 ca         1 0OF      -0.077000
     11 C11          0.1380     0.2220     4.8760 ca         1 0OF      -0.171300
     12 C12          1.2660    -0.5820     4.7090 ca         1 0OF      -0.073000
     13 C13          1.9230    -0.6010     3.4870 ca         1 0OF      -0.149000
     14 C14         -0.4710     3.2080     1.9100 ca         1 0OF       0.038600
     15 C15          0.4690     3.9720     2.6350 ca         1 0OF      -0.128500
     16 C16          0.1760     5.2860     2.9860 ca         1 0OF      -0.119000
     17 C17         -1.0380     5.8640     2.6190 ca         1 0OF      -0.130000
     18 C18         -1.9660     5.1190     1.8950 ca         1 0OF      -0.119000
     19 C19         -1.6970     3.7990     1.5410 ca         1 0OF      -0.128500
     20 C20         -0.6000     0.2240     6.2100 c3         1 0OF       0.690200
     21 F21         -1.2200     1.4100     6.5180 f          1 0OF      -0.233967
     22 F22          0.1960    -0.0350     7.2990 f          1 0OF      -0.233967
     23 F23         -1.6020    -0.7120     6.2960 f          1 0OF      -0.233967
     24 C24          3.6390     0.1590     1.2120 c3         1 0OF       0.089000
     25 C25          4.2420     1.2960     2.0200 c3         1 0OF      -0.113100
     26 C26         -0.5950    -0.6260    -1.2570 ca         1 0OF      -0.054300
     27 C27         -1.3530    -1.7980    -1.1820 ca         1 0OF      -0.140000
     28 C28         -1.9130    -2.3190    -2.3590 ca         1 0OF       0.119100
     29 C29         -1.7270    -1.6870    -3.5940 ca         1 0OF      -0.187000
     30 C30         -0.9680    -0.5120    -3.6560 cp         1 0OF       0.001000
     31 C31         -0.4010     0.0110    -2.4860 ca         1 0OF      -0.088000
     32 O32         -2.6480    -3.4760    -2.2200 oh         1 0OF      -0.498100
     33 C33         -0.7730     0.1690    -4.9310 cp         1 0OF      -0.155300
     34 C34         -0.5640    -0.5640    -6.1220 ca         1 0OF       0.405200
     35 N35         -0.3830     0.0050    -7.3270 nb         1 0OF      -0.666000
     36 C36         -0.4040     1.3510    -7.3870 ca         1 0OF       0.395200
     37 C37         -0.6010     2.1720    -6.2630 ca         1 0OF      -0.246300
     38 C38         -0.7870     1.5700    -5.0190 ca         1 0OF      -0.077000
     39 H1          -0.3380    -0.7340     0.8570 hc         1 0OF       0.101700
     40 H2          -1.2180     1.6470     3.9860 ha         1 0OF       0.170000
     41 H3           1.6320    -1.2000     5.5450 ha         1 0OF       0.160000
     42 H4           2.8100    -1.2460     3.3720 ha         1 0OF       0.155000
     43 H5           1.4350     3.5320     2.9280 ha         1 0OF       0.148000
     44 H6           0.9150     5.8720     3.5540 ha         1 0OF       0.138000
     45 H7          -1.2610     6.9040     2.8980 ha         1 0OF       0.137000
     46 H8          -2.9240     5.5710     1.5970 ha         1 0OF       0.138000
     47 H9          -2.4330     3.2310     0.9490 ha         1 0OF       0.148000
     48 H10          4.0090     0.2320     0.1470 h1         1 0OF       0.065200
     49 H11          4.0010    -0.8260     1.6300 h1         1 0OF       0.065200
     50 H12          3.9330     1.2380     3.0920 hc         1 0OF       0.047367
     51 H13          5.3540     1.2170     1.9630 hc         1 0OF       0.047367
     52 H14          3.9330     2.2890     1.6140 hc         1 0OF       0.047367
     53 H15         -1.5220    -2.3200    -0.2300 ha         1 0OF       0.149000
     54 H16         -2.1820    -2.1040    -4.5040 ha         1 0OF       0.140000
     55 H17          0.2070     0.9280    -2.5270 ha         1 0OF       0.158000
     56 H18         -2.9820    -3.7220    -3.0950 ho         1 0OF       0.421000
     57 H19         -0.5300    -1.6690    -6.1020 h4         1 0OF       0.023100
     58 H20         -0.2540     1.7890    -8.3900 h4         1 0OF       0.022100
     59 H21         -0.6080     3.2650    -6.3660 ha         1 0OF       0.145000
     60 H22         -0.9490     2.1800    -4.1170 ha         1 0OF       0.153000
@<TRIPOS>BOND
     1     1     2 1   
     2     1     7 1   
     3     1    26 1   
     4     1    39 1   
     5     2     3 1   
     6     2     8 2   
     7     3     4 1   
     8     3    24 1   
     9     4     5 ar  
    10     4    13 ar  
    11     5     6 1   
    12     5    10 ar  
    13     6     7 1   
    14     6    14 1   
    15     7     9 2   
    16    10    11 ar  
    17    10    40 1   
    18    11    12 ar  
    19    11    20 1   
    20    12    13 ar  
    21    12    41 1   
    22    13    42 1   
    23    14    15 ar  
    24    14    19 ar  
    25    15    16 ar  
    26    15    43 1   
    27    16    17 ar  
    28    16    44 1   
    29    17    18 ar  
    30    17    45 1   
    31    18    19 ar  
    32    18    46 1   
    33    19    47 1   
    34    20    21 1   
    35    20    22 1   
    36    20    23 1   
    37    24    25 1   
    38    24    48 1   
    39    24    49 1   
    40    25    50 1   
    41    25    51 1   
    42    25    52 1   
    43    26    27 ar  
    44    26    31 ar  
    45    27    28 ar  
    46    27    53 1   
    47    28    29 ar  
    48    28    32 1   
    49    29    30 ar  
    50    29    54 1   
    51    30    31 ar  
    52    30    33 1   
    53    31    55 1   
    54    32    56 1   
    55    33    34 ar  
    56    33    38 ar  
    57    34    35 ar  
    58    34    57 1   
    59    35    36 ar  
    60    36    37 ar  
    61    36    58 1   
    62    37    38 ar  
    63    37    59 1   
    64    38    60 1   
@<TRIPOS>SUBSTRUCTURE
     1 0OF         1 TEMP              0 ****  ****    0 ROOT
