@<TRIPOS>MOLECULE
molecule
   60    64     1     0     0
SMALL
bcc


@<TRIPOS>ATOM
      1 C1           0.0000     0.0000     0.0000 c3         1 0OF      -0.162400
      2 C2           1.5070     0.0000     0.0000 c          1 0OF       0.709500
      3 N3           2.1960     0.0000     1.1380 n          1 0OF      -0.374000
      4 C4           1.6500     0.0420     2.4170 ca         1 0OF       0.073600
      5 C5           0.5270    -0.6750     2.8000 ca         1 0OF       0.034600
      6 N6          -0.1810    -1.5170     1.9460 n          1 0OF      -0.284200
      7 C7          -0.4730    -1.2630     0.6730 c          1 0OF       0.707500
      8 O8           2.1030    -0.0010    -1.0560 o          1 0OF      -0.615500
      9 O9          -1.1320    -2.0620     0.0430 o          1 0OF      -0.595500
     10 C10          0.0580    -0.5640     4.1100 ca         1 0OF      -0.080000
     11 C11          0.6970     0.2470     5.0220 ca         1 0OF      -0.178300
     12 C12          1.8170     0.9620     4.6400 ca         1 0OF      -0.073000
     13 C13          2.2900     0.8620     3.3490 ca         1 0OF      -0.143000
     14 C14         -0.6220    -2.7370     2.4720 ca         1 0OF       0.027600
     15 C15          0.2400    -3.8240     2.5260 ca         1 0OF      -0.112500
     16 C16         -0.2000    -5.0260     3.0460 ca         1 0OF      -0.120000
     17 C17         -1.4960    -5.1470     3.5120 ca         1 0OF      -0.116000
     18 C18         -2.3570    -4.0670     3.4600 ca         1 0OF      -0.120000
     19 C19         -1.9220    -2.8600     2.9460 ca         1 0OF      -0.112500
     20 C20          0.1770     0.3550     6.4320 c3         1 0OF       0.677200
     21 F21          0.7840    -0.6230     7.2280 f          1 0OF      -0.221300
     22 F22          0.4730     1.6230     6.9430 f          1 0OF      -0.221300
     23 F23         -1.2090     0.1630     6.4330 f          1 0OF      -0.221300
     24 C24          3.6570    -0.0500     1.0350 c3         1 0OF       0.091000
     25 C25          4.1100    -1.5050     0.9010 c3         1 0OF      -0.112100
     26 C26         -0.5090     1.1990     0.7560 ca         1 0OF      -0.078300
     27 C27          0.2190     2.3740     0.7550 ca         1 0OF      -0.144000
     28 C28         -0.2460     3.4850     1.4450 ca         1 0OF       0.115100
     29 C29         -1.4430     3.4180     2.1380 ca         1 0OF      -0.141000
     30 C30         -2.1770     2.2340     2.1410 cp         1 0OF      -0.011000
     31 C31         -1.7030     1.1240     1.4450 ca         1 0OF      -0.121000
     32 O32          0.4730     4.6380     1.4410 oh         1 0OF      -0.520100
     33 C33         -3.4610     2.1560     2.8810 cp         1 0OF      -0.164300
     34 C34         -4.2000     0.9740     2.8940 ca         1 0OF       0.429200
     35 N35         -5.3390     0.9030     3.5520 nb         1 0OF      -0.686000
     36 C36         -5.8240     1.9340     4.2180 ca         1 0OF       0.424200
     37 C37         -5.1500     3.1400     4.2520 ca         1 0OF      -0.250300
     38 C38         -3.9450     3.2640     3.5820 ca         1 0OF      -0.082000
     39 H1          -0.3630     0.0250    -1.0200 hc         1 0OF       0.135700
     40 H2          -0.8200    -1.1230     4.4130 ha         1 0OF       0.165000
     41 H3           2.3220     1.6010     5.3550 ha         1 0OF       0.154000
     42 H4           3.1680     1.4240     3.0550 ha         1 0OF       0.153000
     43 H5           1.2550    -3.7300     2.1610 ha         1 0OF       0.138500
     44 H6           0.4710    -5.8750     3.0880 ha         1 0OF       0.138000
     45 H7          -1.8390    -6.0920     3.9170 ha         1 0OF       0.135000
     46 H8          -3.3710    -4.1640     3.8280 ha         1 0OF       0.138000
     47 H9          -2.5970    -2.0130     2.9050 ha         1 0OF       0.138500
     48 H10          3.9770     0.5100     0.1650 h1         1 0OF       0.066700
     49 H11          4.0970     0.3840     1.9250 h1         1 0OF       0.066700
     50 H12          3.8050    -2.0610     1.7790 hc         1 0OF       0.047700
     51 H13          3.6580    -1.9440     0.0200 hc         1 0OF       0.047700
     52 H14          5.1890    -1.5400     0.8090 hc         1 0OF       0.047700
     53 H15          1.1560     2.4290     0.2140 ha         1 0OF       0.151000
     54 H16         -1.8070     4.2840     2.6780 ha         1 0OF       0.146000
     55 H17         -2.2720     0.2020     1.4450 ha         1 0OF       0.145000
     56 H18          0.1900     5.1820     0.7240 ho         1 0OF       0.424000
     57 H19         -3.8340     0.1060     2.3590 h4         1 0OF       0.026100
     58 H20         -6.7650     1.8330     4.7440 h4         1 0OF       0.025100
     59 H21         -5.5570     3.9790     4.8040 ha         1 0OF       0.141000
     60 H22         -3.3960     4.1980     3.5920 ha         1 0OF       0.142000
@<TRIPOS>BOND
     1    32    28 1   
     2    28    29 ar  
     3    28    27 ar  
     4    29    30 ar  
     5    34    35 ar  
     6    34    33 ar  
     7    35    36 ar  
     8    27    26 ar  
     9    30    33 1   
    10    30    31 ar  
    11    33    38 ar  
    12    36    37 ar  
    13    26    31 ar  
    14    26     1 1   
    15    38    37 ar  
    16     1     2 1   
    17     1     7 1   
    18     8     2 2   
    19     2     3 1   
    20    23    20 1   
    21     7     9 2   
    22     7     6 1   
    23     3     4 1   
    24     3    24 1   
    25    13     4 ar  
    26    13    12 ar  
    27     4     5 ar  
    28    12    11 ar  
    29    24    25 1   
    30     5     6 1   
    31     5    10 ar  
    32    11    10 ar  
    33    11    20 1   
    34     6    14 1   
    35    20    21 1   
    36    20    22 1   
    37    19    14 ar  
    38    19    18 ar  
    39    14    15 ar  
    40    18    17 ar  
    41    15    16 ar  
    42    17    16 ar  
    43     1    39 1   
    44    10    40 1   
    45    12    41 1   
    46    13    42 1   
    47    15    43 1   
    48    16    44 1   
    49    17    45 1   
    50    18    46 1   
    51    19    47 1   
    52    24    48 1   
    53    24    49 1   
    54    25    50 1   
    55    25    51 1   
    56    25    52 1   
    57    27    53 1   
    58    29    54 1   
    59    31    55 1   
    60    32    56 1   
    61    34    57 1   
    62    36    58 1   
    63    37    59 1   
    64    38    60 1   
@<TRIPOS>SUBSTRUCTURE
     1 0OF         1 TEMP              0 ****  ****    0 ROOT
