@<TRIPOS>MOLECULE
0OH
   45    48     1     0     0
SMALL
bcc


@<TRIPOS>ATOM
      1 OAF          3.6230     1.7860    -1.4200 o          1 0OH      -0.949833
      2 PBC          3.7380     0.6960    -2.4450 p5         1 0OH       1.449900
      3 OAG          5.1350     0.2090    -2.6930 o          1 0OH      -0.949833
      4 OAB          2.9040     0.8920    -3.6790 o          1 0OH      -0.949833
      5 OAS          2.9010    -0.7180    -1.6690 os         1 0OH      -0.798800
      6 PBE          2.0040    -1.8450    -1.1340 p5         1 0OH       1.668800
      7 OAI          2.1590    -3.1920    -1.7330 o          1 0OH      -0.911500
      8 OAD          0.6670    -1.4350    -0.6410 o          1 0OH      -0.911500
      9 OAT          2.6350    -2.3050     0.5490 os         1 0OH      -0.765800
     10 PBD          2.6830    -2.8320     1.9690 p5         1 0OH       1.736500
     11 OAH          1.4550    -2.0550     2.6680 oh         1 0OH      -0.804400
     12 OAC          3.8610    -2.8750     2.8460 o          1 0OH      -0.899300
     13 OAR          2.0040    -4.3250     1.9570 os         1 0OH      -0.589200
     14 CAL          2.7790    -5.4240     2.3250 c3         1 0OH       0.229400
     15 CBB          2.8670    -6.4620     1.2370 cx         1 0OH      -0.147000
     16 CAZ          3.2990    -7.8850     1.5730 cx         1 0OH      -0.134700
     17 CAN          4.2120    -6.9760     0.7950 cx         1 0OH      -0.114400
     18 CAX          1.7400    -6.5310     0.2110 c3         1 0OH       0.194100
     19 OAE          2.1620    -6.2050    -1.0970 oh         1 0OH      -0.649800
     20 CAM          1.2940    -8.0120     0.1950 c3         1 0OH      -0.094400
     21 CAY          2.4700    -8.8660     0.7440 c3         1 0OH       0.100000
     22 N9           2.0910   -10.0700     1.4420 nh         1 0OH      -0.231200
     23 C8           2.1560   -10.3300     2.8400 c1         1 0OH       0.091400
     24 N7           1.7490   -11.5950     3.1260 ne         1 0OH      -0.702800
     25 C5           1.4090   -12.1980     1.9230 ca         1 0OH      -0.120200
     26 C4           1.6250   -11.2330     0.8070 ca         1 0OH       0.369800
     27 N3           1.3710   -11.5450    -0.4870 nb         1 0OH      -0.707000
     28 C2           0.8910   -12.8060    -0.6560 ca         1 0OH       0.558900
     29 N1           0.6370   -13.7760     0.2570 nb         1 0OH      -0.783000
     30 C6           0.9150   -13.4780     1.5690 ca         1 0OH       0.537200
     31 N6           0.7520   -14.4800     2.5730 nv         1 0OH      -0.892500
     32 H5           2.2830    -5.9070     3.2190 h1         1 0OH       0.027200
     33 H6           3.8120    -5.0850     2.6230 h1         1 0OH       0.027200
     34 H7           3.5460    -8.1950     2.6000 hc         1 0OH       0.105700
     35 H8           5.1150    -6.5830     1.2940 hc         1 0OH       0.065700
     36 H9           4.3650    -7.1470    -0.2860 hc         1 0OH       0.065700
     37 H10          0.8960    -5.8590     0.5270 h1         1 0OH       0.069700
     38 H11          2.2080    -5.2270    -1.1710 ho         1 0OH       0.494000
     39 H12          0.3870    -8.1230     0.8370 hc         1 0OH       0.044200
     40 H13          1.0420    -8.3310    -0.8440 hc         1 0OH       0.044200
     41 H14          3.0910    -9.1890    -0.1480 h1         1 0OH       0.042700
     42 H15          0.8460    -1.6700     2.0360 ho         1 0OH       0.478000
     43 H16          0.6660   -13.0820    -1.7040 h5         1 0OH       0.000100
     44 H17          0.7800   -14.0520     3.4780 hn         1 0OH       0.351800
     45 H18         -0.1140   -14.9710     2.4580 hn         1 0OH       0.351800
@<TRIPOS>BOND
     1     1     2 1   
     2     2     3 1   
     3     2     4 1   
     4     2     5 1   
     5     5     6 1   
     6     6     7 1   
     7     6     8 1   
     8     6     9 1   
     9     9    10 1   
    10    10    11 1   
    11    10    12 2   
    12    10    13 1   
    13    11    42 1   
    14    13    14 1   
    15    14    15 1   
    16    14    32 1   
    17    14    33 1   
    18    15    16 1   
    19    15    17 1   
    20    15    18 1   
    21    16    17 1   
    22    16    21 1   
    23    16    34 1   
    24    17    35 1   
    25    17    36 1   
    26    18    19 1   
    27    18    20 1   
    28    18    37 1   
    29    19    38 1   
    30    20    21 1   
    31    20    39 1   
    32    20    40 1   
    33    21    22 1   
    34    21    41 1   
    35    22    23 2   
    36    22    26 1   
    37    23    24 2   
    38    24    25 1   
    39    25    26 ar  
    40    25    30 ar  
    41    26    27 ar  
    42    27    28 ar  
    43    28    29 ar  
    44    28    43 1   
    45    29    30 ar  
    46    30    31 1   
    47    31    44 1   
    48    31    45 1   
@<TRIPOS>SUBSTRUCTURE
     1 0OH         1 TEMP              0 ****  ****    0 ROOT
