@<TRIPOS>MOLECULE
0OH
   45    48     1     0     0
SMALL
bcc


@<TRIPOS>ATOM
      1 OAF         0.0000    0.0000    0.0000 o         1 0OH     -0.630167
      2 PBC         1.6100    0.0000    0.0000 p5        1 0OH      0.834900
      3 OAG         2.1040    0.0000    1.3950 o         1 0OH     -0.630167
      4 OAB         2.1460   -1.3150   -0.7590 o         1 0OH     -0.630167
      5 OAS         2.1460    1.3150   -0.7590 os        1 0OH     -0.482800
      6 PBE         3.5740    2.0550   -0.8410 p5        1 0OH      0.999800
      7 OAI         4.5180    1.2850   -1.8950 o         1 0OH     -0.662000
      8 OAD         4.2130    2.0430    0.4940 o         1 0OH     -0.662000
      9 OAT         3.3640    3.5760   -1.3220 os        1 0OH     -0.488800
     10 PBD         4.2920    4.8910   -1.3120 p5        1 0OH      0.944800
     11 OAH         5.3150    4.8350   -2.5540 o         1 0OH     -0.696500
     12 OAC         5.0570    4.9460   -0.0450 o         1 0OH     -0.696500
     13 OAR         3.3680    6.2030   -1.4370 os        1 0OH     -0.489200
     14 CAL         3.8860    7.5320   -1.3550 c3        1 0OH      0.352400
     15 CBB         2.7430    8.5370   -1.5140 cx        1 0OH     -0.111000
     16 CAZ         2.9990   10.0530   -1.4670 cx        1 0OH     -0.199700
     17 CAN         2.2920    9.3550   -0.3020 cx        1 0OH     -0.036400
     18 CAX         1.7390    8.2930   -2.6590 c3        1 0OH      0.229100
     19 OAE         0.8150    7.2630   -2.3040 oh        1 0OH     -0.539800
     20 CAM         1.0070    9.6490   -2.8170 c3        1 0OH     -0.107400
     21 CAY         2.1290   10.6810   -2.5760 c3        1 0OH     -0.002000
     22 N9          2.9110   10.8540   -3.8030 na        1 0OH      0.211000
     23 C8          3.6210    9.8860   -4.4510 cc        1 0OH      0.128700
     24 N7          4.1900   10.3850   -5.5080 nd        1 0OH     -0.526100
     25 C5          3.8820   11.7010   -5.6090 ca        1 0OH     -0.180200
     26 C4          3.0570   12.0170   -4.5150 ca        1 0OH      0.255800
     27 N3          2.6090   13.2610   -4.3820 nb        1 0OH     -0.776000
     28 C2          2.9350   14.1880   -5.2580 ca        1 0OH      0.495900
     29 N1          3.7110   13.9400   -6.2980 nb        1 0OH     -0.666000
     30 C6          4.2010   12.7250   -6.5170 ca        1 0OH      0.334200
     31 N6          5.0080   12.4730   -7.6110 nv        1 0OH     -0.607500
     32 H5          4.6140    7.6850   -2.1420 h1        1 0OH     -0.025300
     33 H6          4.3610    7.6750   -0.3910 h1        1 0OH     -0.025300
     34 H7          4.0510   10.2950   -1.3800 hc        1 0OH      0.073700
     35 H8          2.8850    9.2270    0.5950 hc        1 0OH      0.035200
     36 H9          1.2250    9.5330   -0.2290 hc        1 0OH      0.035200
     37 H10         2.2640    8.0410   -3.5720 h1        1 0OH      0.034700
     38 H11         0.3910    6.9400   -3.0820 ho        1 0OH      0.366000
     39 H12         0.6030    9.7510   -3.8170 hc        1 0OH      0.018700
     40 H13         0.2290    9.7520   -2.0700 hc        1 0OH      0.018700
     41 H14         1.7130   11.6250   -2.2450 h1        1 0OH      0.036700
     42 H15         3.7000    8.8540   -4.1310 h5        1 0OH      0.063800
     43 H16         2.5570   15.1940   -5.1180 h5        1 0OH     -0.050900
     44 H17         5.9990   12.5980   -7.5420 hn        1 0OH      0.226800
     45 H18         4.5990   12.1970   -8.4820 hn        1 0OH      0.226800
@<TRIPOS>BOND
     1    1    2 1   
     2    2    3 1   
     3    2    4 1   
     4    2    5 1   
     5    5    6 1   
     6    6    7 1   
     7    6    8 1   
     8    6    9 1   
     9    9   10 1   
    10   10   11 1   
    11   10   12 1   
    12   10   13 1   
    13   13   14 1   
    14   14   15 1   
    15   14   32 1   
    16   14   33 1   
    17   15   16 1   
    18   15   17 1   
    19   15   18 1   
    20   16   17 1   
    21   16   21 1   
    22   16   34 1   
    23   17   35 1   
    24   17   36 1   
    25   18   19 1   
    26   18   20 1   
    27   18   37 1   
    28   19   38 1   
    29   20   21 1   
    30   20   39 1   
    31   20   40 1   
    32   21   22 1   
    33   21   41 1   
    34   22   23 1   
    35   22   26 1   
    36   23   24 2   
    37   23   42 1   
    38   24   25 1   
    39   25   26 ar  
    40   25   30 ar  
    41   26   27 ar  
    42   27   28 ar  
    43   28   29 ar  
    44   28   43 1   
    45   29   30 ar  
    46   30   31 1   
    47   31   44 1   
    48   31   45 1   
@<TRIPOS>SUBSTRUCTURE
     1 0OH         1 TEMP              0 ****  ****    0 ROOT
