@<TRIPOS>MOLECULE
molecule
   45    48     1     0     0
SMALL
bcc


@<TRIPOS>ATOM
      1 OAF          0.0000     0.0000     0.0000 o          1 0OJ      -0.812167
      2 PBC          1.6100     0.0000     0.0000 p5         1 0OJ       1.332900
      3 OAG          2.1470     0.0000     1.5180 o          1 0OJ      -0.812167
      4 OAB          2.1030    -1.2080    -0.6990 o          1 0OJ      -0.812167
      5 OAS          2.1460     1.3160    -0.7590 os         1 0OJ      -0.734800
      6 PBE          3.5450     1.7170    -1.4470 p5         1 0OJ       1.512800
      7 OAI          4.0250     0.5930    -2.2790 o          1 0OJ      -0.867000
      8 OAD          4.6310     2.0440    -0.3050 o          1 0OJ      -0.867000
      9 OAT          3.3320     3.0180    -2.3730 os         1 0OJ      -0.724800
     10 PBD          4.1530     3.6650    -3.5980 p5         1 0OJ       1.441800
     11 OAH          4.5470     2.5990    -4.5460 o          1 0OJ      -0.856000
     12 OAC          5.4730     4.3940    -3.0330 o          1 0OJ      -0.856000
     13 OAR          3.2270     4.7420    -4.3550 os         1 0OJ      -0.591200
     14 CAL          3.6330     5.4150    -5.5490 c3         1 0OJ       0.242400
     15 CAY          2.5230     6.3650    -6.0020 c3         1 0OJ      -0.047700
     16 CAZ          2.9840     7.1950    -7.2170 cx         1 0OJ      -0.105700
     17 CAN          2.3430     8.5650    -7.4430 cx         1 0OJ      -0.120400
     18 CAX          1.3050     5.5640    -6.5270 c3         1 0OJ       0.161100
     19 OAE          0.4450     5.1840    -5.4520 oh         1 0OJ      -0.563800
     20 CAM          0.6020     6.5840    -7.4580 c3         1 0OJ      -0.085400
     21 CBB          1.7630     7.3330    -8.1430 cx         1 0OJ      -0.043300
     22 N9           1.8900     7.1970    -9.5970 na         1 0OJ      -0.207000
     23 C8           3.0380     6.9430   -10.2860 cc         1 0OJ       0.355700
     24 N7           2.7880     6.8860   -11.5620 nd         1 0OJ      -0.613100
     25 C5           1.4670     7.1000   -11.7720 ca         1 0OJ      -0.172200
     26 C4           0.8740     7.2960   -10.5130 ca         1 0OJ       0.465800
     27 N3          -0.4330     7.5280   -10.4440 nb         1 0OJ      -0.800000
     28 C2          -1.1650     7.5740   -11.5370 ca         1 0OJ       0.601900
     29 N1          -0.6530     7.3950   -12.7410 nb         1 0OJ      -0.780000
     30 C6           0.6430     7.1540   -12.9090 ca         1 0OJ       0.616200
     31 N6           1.1710     6.9680   -14.1740 nv         1 0OJ      -1.061500
     32 H5           3.8230     4.6850    -6.3270 h1         1 0OJ       0.018200
     33 H6           4.5360     5.9800    -5.3560 h1         1 0OJ       0.018200
     34 H7           2.2220     7.0190    -5.1920 hc         1 0OJ       0.077700
     35 H8           3.8880     6.9370    -7.7550 hc         1 0OJ       0.083700
     36 H9           1.7590     8.9500    -6.6160 hc         1 0OJ       0.069700
     37 H10          2.9010     9.2430    -8.0770 hc         1 0OJ       0.069700
     38 H11          1.6330     4.6980    -7.0900 h1         1 0OJ       0.056700
     39 H12         -0.1080     4.4720    -5.7290 ho         1 0OJ       0.395000
     40 H13         -0.0010     6.0680    -8.1950 hc         1 0OJ       0.056700
     41 H14         -0.0010     7.2710    -6.8780 hc         1 0OJ       0.056700
     42 H15          4.0150     6.8080    -9.8370 h5         1 0OJ       0.067800
     43 H16         -2.2270     7.7680   -11.4460 h5         1 0OJ       0.020100
     44 H17          1.5040     7.7540   -14.6980 hn         1 0OJ       0.405300
     45 H18          1.2100     6.0500   -14.5700 hn         1 0OJ       0.405300
@<TRIPOS>BOND
     1     4     2 1   
     2     1     2 1   
     3     3     2 1   
     4     2     5 1   
     5    11    10 1   
     6    12    10 1   
     7     9    10 1   
     8     9     6 1   
     9    10    13 1   
    10    28    29 ar  
    11    28    27 ar  
    12    29    30 ar  
    13     5     6 1   
    14     6     7 1   
    15     6     8 1   
    16    27    26 ar  
    17    30    31 1   
    18    30    25 ar  
    19    13    14 1   
    20    26    25 ar  
    21    26    22 1   
    22    14    15 1   
    23    25    24 1   
    24    22    21 1   
    25    22    23 1   
    26    20    18 1   
    27    20    21 1   
    28    15    16 1   
    29    15    18 1   
    30    24    23 2   
    31    16    21 1   
    32    16    17 1   
    33    18    19 1   
    34    21    17 1   
    35    14    32 1   
    36    14    33 1   
    37    15    34 1   
    38    16    35 1   
    39    17    36 1   
    40    17    37 1   
    41    18    38 1   
    42    19    39 1   
    43    20    40 1   
    44    20    41 1   
    45    23    42 1   
    46    28    43 1   
    47    31    44 1   
    48    31    45 1   
@<TRIPOS>SUBSTRUCTURE
     1 0OJ         1 TEMP              0 ****  ****    0 ROOT
