@<TRIPOS>MOLECULE
0OJ
   45    48     1     0     0
SMALL
bcc


@<TRIPOS>ATOM
      1 OAF          1.5330     1.3040     0.0820 o          1 0OJ      -0.966500
      2 PBC          2.7320     0.5380    -0.4090 p5         1 0OJ       1.467900
      3 OAG          3.2340    -0.4980     0.5640 o          1 0OJ      -0.966500
      4 OAB          3.8200     1.4060    -0.9820 o          1 0OJ      -0.966500
      5 OAS          2.1360    -0.4440    -1.7760 os         1 0OJ      -0.820800
      6 PBE          1.6920    -1.5410    -2.7900 p5         1 0OJ       1.728800
      7 OAI          0.6140    -2.4430    -2.3110 o          1 0OJ      -0.953000
      8 OAD          2.8280    -2.2440    -3.4770 o          1 0OJ      -0.953000
      9 OAT          0.9620    -0.8060    -4.1830 os         1 0OJ      -0.826800
     10 PBD          0.2450    -0.4360    -5.5410 p5         1 0OJ       1.616800
     11 OAH          0.8370     0.7220    -6.2780 o          1 0OJ      -0.920000
     12 OAC         -1.2390    -0.5060    -5.5030 o          1 0OJ      -0.920000
     13 OAR          0.6490    -1.7400    -6.5410 os         1 0OJ      -0.596200
     14 CAL          0.8590    -2.9830    -5.9840 c3         1 0OJ       0.213400
     15 CAY          2.0160    -3.7370    -6.6650 c3         1 0OJ      -0.089700
     16 CAZ          2.1030    -3.4810    -8.1480 cx         1 0OJ      -0.020700
     17 CAN          2.8450    -4.4730    -9.0050 cx         1 0OJ      -0.161400
     18 CAX          3.3960    -3.3400    -6.0880 c3         1 0OJ       0.163100
     19 OAE          3.8190    -4.2730    -5.1180 oh         1 0OJ      -0.689800
     20 CAM          4.4060    -3.3690    -7.2600 c3         1 0OJ      -0.068400
     21 CBB          3.5720    -3.2230    -8.5290 cx         1 0OJ      -0.058300
     22 N9           3.9460    -2.2090    -9.4610 na         1 0OJ      -0.203000
     23 C8           5.1200    -2.1570   -10.2450 cc         1 0OJ       0.384700
     24 N7           5.4300    -0.9300   -10.7040 nd         1 0OJ      -0.608100
     25 C5           4.4570    -0.0810   -10.1490 ca         1 0OJ      -0.239200
     26 C4           3.5210    -0.8680    -9.3450 ca         1 0OJ       0.445800
     27 N3           2.4870    -0.3400    -8.6400 nb         1 0OJ      -0.588000
     28 C2           2.4430     1.0110    -8.6700 ca         1 0OJ       0.675900
     29 N1           3.2460     1.8660    -9.3870 nb         1 0OJ      -0.786000
     30 C6           4.2400     1.3310   -10.1470 ca         1 0OJ       0.642200
     31 N6           5.0440     2.1550   -10.9760 nv         1 0OJ      -0.911500
     32 H5           1.0860    -2.9010    -4.8770 h1         1 0OJ       0.028700
     33 H6          -0.0630    -3.6260    -6.1380 h1         1 0OJ       0.028700
     34 H7           1.8600    -4.8360    -6.4820 hc         1 0OJ       0.019700
     35 H8           1.2820    -2.8690    -8.5610 hc         1 0OJ       0.131700
     36 H9           3.1590    -5.4380    -8.5710 hc         1 0OJ       0.042200
     37 H10          2.5680    -4.5620   -10.0700 hc         1 0OJ       0.042200
     38 H11          3.3320    -2.3070    -5.6320 h1         1 0OJ       0.156700
     39 H12          3.5890    -3.8640    -4.2520 ho         1 0OJ       0.501000
     40 H13          4.9640    -4.3390    -7.2750 hc         1 0OJ       0.031700
     41 H14          5.1440    -2.5410    -7.1380 hc         1 0OJ       0.031700
     42 H15          5.6860    -3.0670   -10.4600 h5         1 0OJ       0.038800
     43 H16          1.6770     1.4330    -7.9350 h5         1 0OJ       0.187100
     44 H17          5.9690     1.7840   -11.0510 hn         1 0OJ       0.368300
     45 H18          5.0620     3.1070   -10.6730 hn         1 0OJ       0.368300
@<TRIPOS>BOND
     1     1     2 1   
     2     2     3 1   
     3     2     4 1   
     4     2     5 1   
     5     5     6 1   
     6     6     7 1   
     7     6     8 1   
     8     6     9 1   
     9     9    10 1   
    10    10    11 1   
    11    10    12 1   
    12    10    13 1   
    13    13    14 1   
    14    14    15 1   
    15    14    32 1   
    16    14    33 1   
    17    15    16 1   
    18    15    18 1   
    19    15    34 1   
    20    16    17 1   
    21    16    21 1   
    22    16    35 1   
    23    17    21 1   
    24    17    36 1   
    25    17    37 1   
    26    18    19 1   
    27    18    20 1   
    28    18    38 1   
    29    19    39 1   
    30    20    21 1   
    31    20    40 1   
    32    20    41 1   
    33    21    22 1   
    34    22    23 1   
    35    22    26 1   
    36    23    24 2   
    37    23    42 1   
    38    24    25 1   
    39    25    26 ar  
    40    25    30 ar  
    41    26    27 ar  
    42    27    28 ar  
    43    28    29 ar  
    44    28    43 1   
    45    29    30 ar  
    46    30    31 1   
    47    31    44 1   
    48    31    45 1   
@<TRIPOS>SUBSTRUCTURE
     1 0OJ         1 TEMP              0 ****  ****    0 ROOT
