@<TRIPOS>MOLECULE
molecule
   27    29     1     0     0
SMALL
bcc


@<TRIPOS>ATOM
      1 CAG          0.0000     0.0000     0.0000 ca         1 0OK      -0.111500
      2 CAC          1.3820     0.0000     0.0000 ca         1 0OK      -0.121500
      3 CAB          2.0750     0.0000     1.1970 ca         1 0OK      -0.117000
      4 CAD          1.3870    -0.0010     2.3970 ca         1 0OK      -0.121500
      5 CAH          0.0060    -0.0010     2.4040 ca         1 0OK      -0.111500
      6 CAM         -0.6930    -0.0010     1.2040 ca         1 0OK       0.016600
      7 NAQ         -2.0930     0.0040     1.2080 n          1 0OK      -0.294500
      8 CAK         -2.7700    -1.0850     1.6590 cc         1 0OK       0.509800
      9 NAL         -4.0660    -1.1570     1.6930 nd         1 0OK      -0.645100
     10 CAO         -4.8460    -0.1290     1.2750 ca         1 0OK       0.189400
     11 CAI         -6.2400    -0.2050     1.3120 ca         1 0OK      -0.119000
     12 CAE         -6.9930     0.8620     0.8760 ca         1 0OK      -0.094000
     13 CAF         -6.3830     2.0160     0.3990 ca         1 0OK      -0.153000
     14 CAJ         -5.0100     2.1140     0.3530 ca         1 0OK      -0.053000
     15 CAP         -4.2290     1.0460     0.7890 ca         1 0OK      -0.203600
     16 CAN         -2.7610     1.0960     0.7680 c          1 0OK       0.705100
     17 OAA         -2.1680     2.0810     0.3660 o          1 0OK      -0.608500
     18 H1          -0.5420     0.0000    -0.9380 ha         1 0OK       0.142500
     19 H2           1.9230     0.0010    -0.9390 ha         1 0OK       0.137500
     20 H3           3.1580     0.0000     1.1940 ha         1 0OK       0.135000
     21 H4           1.9330    -0.0010     3.3330 ha         1 0OK       0.137500
     22 H5          -0.5310    -0.0020     3.3450 ha         1 0OK       0.142500
     23 H6          -2.1990    -1.9380     2.0060 h5         1 0OK       0.060800
     24 H7          -6.7270    -1.1000     1.6810 ha         1 0OK       0.150000
     25 H8          -8.0740     0.8010     0.9060 ha         1 0OK       0.135000
     26 H9          -6.9930     2.8450     0.0610 ha         1 0OK       0.136000
     27 H10         -4.5410     3.0170    -0.0200 ha         1 0OK       0.155000
@<TRIPOS>BOND
     1     3     2 ar  
     2     3     4 ar  
     3     2     1 ar  
     4     4     5 ar  
     5     1     6 ar  
     6     5     6 ar  
     7     6     7 1   
     8     7     8 1   
     9     7    16 1   
    10     8     9 2   
    11    17    16 2   
    12    16    15 1   
    13     9    10 1   
    14    15    10 ar  
    15    15    14 ar  
    16    10    11 ar  
    17    14    13 ar  
    18    11    12 ar  
    19    13    12 ar  
    20     1    18 1   
    21     2    19 1   
    22     3    20 1   
    23     4    21 1   
    24     5    22 1   
    25     8    23 1   
    26    11    24 1   
    27    12    25 1   
    28    13    26 1   
    29    14    27 1   
@<TRIPOS>SUBSTRUCTURE
     1 0OK         1 TEMP              0 ****  ****    0 ROOT
