@<TRIPOS>MOLECULE
0OK
   27    29     1     0     0
SMALL
bcc


@<TRIPOS>ATOM
      1 CAG          0.0000     0.0000     0.0000 ca         1 0OK      -0.074000
      2 CAC          1.3820     0.0000     0.0000 ca         1 0OK      -0.094000
      3 CAB          2.0750     0.0000     1.1970 ca         1 0OK      -0.081000
      4 CAD          1.3870    -0.0010     2.3970 ca         1 0OK      -0.094000
      5 CAH          0.0060    -0.0010     2.4040 ca         1 0OK      -0.074000
      6 CAM         -0.6930    -0.0010     1.2040 ca         1 0OK      -0.127400
      7 NAQ         -2.0930     0.0040     1.2080 n          1 0OK       0.151500
      8 CAK         -2.7700    -1.0850     1.6590 cc         1 0OK       0.330800
      9 NAL         -4.0660    -1.1570     1.6930 nd         1 0OK      -0.540100
     10 CAO         -4.8460    -0.1290     1.2750 ca         1 0OK       0.148400
     11 CAI         -6.2400    -0.2050     1.3120 ca         1 0OK      -0.094000
     12 CAE         -6.9930     0.8620     0.8760 ca         1 0OK      -0.065000
     13 CAF         -6.3830     2.0160     0.3990 ca         1 0OK      -0.127000
     14 CAJ         -5.0100     2.1140     0.3530 ca         1 0OK      -0.017000
     15 CAP         -4.2290     1.0460     0.7890 ca         1 0OK      -0.214600
     16 CAN         -2.7610     1.0960     0.7680 c          1 0OK       0.617100
     17 OAA         -2.1680     2.0810     0.3660 o          1 0OK      -0.654500
     18 H1          -0.5420     0.0000    -0.9380 ha         1 0OK       0.113000
     19 H2           1.9230     0.0010    -0.9390 ha         1 0OK       0.108500
     20 H3           3.1580     0.0000     1.1940 ha         1 0OK       0.105000
     21 H4           1.9330    -0.0010     3.3330 ha         1 0OK       0.108500
     22 H5          -0.5310    -0.0020     3.3450 ha         1 0OK       0.113000
     23 H6          -2.1990    -1.9380     2.0060 h5         1 0OK       0.009800
     24 H7          -6.7270    -1.1000     1.6810 ha         1 0OK       0.120000
     25 H8          -8.0740     0.8010     0.9060 ha         1 0OK       0.103000
     26 H9          -6.9930     2.8450     0.0610 ha         1 0OK       0.107000
     27 H10         -4.5410     3.0170    -0.0200 ha         1 0OK       0.124000
@<TRIPOS>BOND
     1     1     2 ar  
     2     1     6 ar  
     3     1    18 1   
     4     2     3 ar  
     5     2    19 1   
     6     3     4 ar  
     7     3    20 1   
     8     4     5 ar  
     9     4    21 1   
    10     5     6 ar  
    11     5    22 1   
    12     6     7 1   
    13     7     8 1   
    14     7    16 1   
    15     8     9 2   
    16     8    23 1   
    17     9    10 1   
    18    10    11 ar  
    19    10    15 ar  
    20    11    12 ar  
    21    11    24 1   
    22    12    13 ar  
    23    12    25 1   
    24    13    14 ar  
    25    13    26 1   
    26    14    15 ar  
    27    14    27 1   
    28    15    16 1   
    29    16    17 2   
@<TRIPOS>SUBSTRUCTURE
     1 0OK         1 TEMP              0 ****  ****    0 ROOT
