@<TRIPOS>MOLECULE
0OK
   27    29     1     0     0
SMALL
bcc


@<TRIPOS>ATOM
      1 CAG          0.0460    -0.5550     0.1580 ca         1 0OK      -0.130000
      2 CAC          1.4340    -0.4490     0.1180 ca         1 0OK      -0.118500
      3 CAB          2.1350     0.1200     1.1800 ca         1 0OK      -0.130000
      4 CAD          1.4400     0.5780     2.2990 ca         1 0OK      -0.118500
      5 CAH          0.0530     0.4740     2.3620 ca         1 0OK      -0.130000
      6 CAM         -0.6630    -0.0870     1.2830 ca         1 0OK       0.035600
      7 NAQ         -2.0820    -0.1700     1.3360 n          1 0OK      -0.316500
      8 CAK         -2.8080     0.9210     1.8370 cc         1 0OK       0.493800
      9 NAL         -4.1050     0.9950     1.9890 nd         1 0OK      -0.613100
     10 CAO         -4.8710    -0.1230     1.6240 ca         1 0OK       0.174400
     11 CAI         -6.2780    -0.1100     1.7780 ca         1 0OK      -0.120000
     12 CAE         -7.0230    -1.2200     1.4100 ca         1 0OK      -0.095000
     13 CAF         -6.4050    -2.3630     0.8850 ca         1 0OK      -0.151000
     14 CAJ         -5.0270    -2.3970     0.7260 ca         1 0OK      -0.061000
     15 CAP         -4.2550    -1.2860     1.0910 ca         1 0OK      -0.188600
     16 CAN         -2.7860    -1.3290     0.9190 c          1 0OK       0.713100
     17 OAA         -2.1840    -2.3040     0.4400 o          1 0OK      -0.609500
     18 H1          -0.4910    -1.0290    -0.6800 ha         1 0OK       0.148500
     19 H2           1.9780    -0.8220    -0.7630 ha         1 0OK       0.138000
     20 H3           3.2300     0.2030     1.1390 ha         1 0OK       0.137000
     21 H4           1.9880     1.0200     3.1440 ha         1 0OK       0.138000
     22 H5          -0.4730     0.8240     3.2640 ha         1 0OK       0.148500
     23 H6          -2.2040     1.8120     2.1200 h5         1 0OK       0.060800
     24 H7          -6.7730     0.7830     2.1890 ha         1 0OK       0.154000
     25 H8          -8.1170    -1.2050     1.5330 ha         1 0OK       0.138000
     26 H9          -7.0140    -3.2330     0.6000 ha         1 0OK       0.140000
     27 H10         -4.5220    -3.2870     0.3150 ha         1 0OK       0.159000
@<TRIPOS>BOND
     1     1     2 ar  
     2     1     6 ar  
     3     1    18 1   
     4     2     3 ar  
     5     2    19 1   
     6     3     4 ar  
     7     3    20 1   
     8     4     5 ar  
     9     4    21 1   
    10     5     6 ar  
    11     5    22 1   
    12     6     7 1   
    13     7     8 1   
    14     7    16 1   
    15     8     9 2   
    16     8    23 1   
    17     9    10 1   
    18    10    11 ar  
    19    10    15 ar  
    20    11    12 ar  
    21    11    24 1   
    22    12    13 ar  
    23    12    25 1   
    24    13    14 ar  
    25    13    26 1   
    26    14    15 ar  
    27    14    27 1   
    28    15    16 1   
    29    16    17 2   
@<TRIPOS>SUBSTRUCTURE
     1 0OK         1 TEMP              0 ****  ****    0 ROOT
