@<TRIPOS>MOLECULE
0OL
   29    30     1     0     0
SMALL
bcc


@<TRIPOS>ATOM
      1 CAJ         -0.0960     0.4480     0.4050 c3         1 0OL       0.078000
      2 CAH          1.2470    -0.1490    -0.0210 c3         1 0OL      -0.103400
      3 CAG          2.0960    -0.4980     1.1830 c3         1 0OL      -0.078400
      4 CAI          1.3320    -1.3760     2.1510 c3         1 0OL      -0.103400
      5 CAK         -0.0120    -0.7450     2.5240 c3         1 0OL       0.078000
      6 NAN         -0.8140    -0.3420     1.3890 n          1 0OL      -0.450800
      7 CAL         -1.9350    -1.0700     0.9870 c          1 0OL       0.662700
      8 OAA         -2.3880    -0.9540    -0.1700 o          1 0OL      -0.594100
      9 CAM         -2.6420    -1.9230     1.9880 ca         1 0OL      -0.132600
     10 CAE         -2.9020    -3.2600     1.6680 ca         1 0OL      -0.095000
     11 CAC         -3.6060    -4.0620     2.5650 ca         1 0OL      -0.137000
     12 CAB         -4.0620    -3.5310     3.7710 ca         1 0OL      -0.114000
     13 CAD         -3.8140    -2.1940     4.0830 ca         1 0OL      -0.137000
     14 CAF         -3.1030    -1.3880     3.1950 ca         1 0OL      -0.095000
     15 H1          -0.7440     0.5900    -0.5050 h1         1 0OL       0.059950
     16 H2           0.0890     1.4590     0.8710 h1         1 0OL       0.059950
     17 H3           1.7780     0.6000    -0.6620 hc         1 0OL       0.050200
     18 H4           1.0740    -1.0660    -0.6420 hc         1 0OL       0.050200
     19 H5           2.4110     0.4450     1.7040 hc         1 0OL       0.042200
     20 H6           3.0280    -1.0250     0.8500 hc         1 0OL       0.042200
     21 H7           1.9260    -1.5210     3.0900 hc         1 0OL       0.050200
     22 H8           1.1650    -2.3860     1.6940 hc         1 0OL       0.050200
     23 H9          -0.5870    -1.4650     3.1700 h1         1 0OL       0.059950
     24 H10          0.1870     0.1850     3.1330 h1         1 0OL       0.059950
     25 H11         -2.5610    -3.6650     0.7030 ha         1 0OL       0.145000
     26 H12         -3.8080    -5.1140     2.3140 ha         1 0OL       0.136500
     27 H13         -4.6220    -4.1650     4.4750 ha         1 0OL       0.134000
     28 H14         -4.1810    -1.7720     5.0300 ha         1 0OL       0.136500
     29 H15         -2.9110    -0.3320     3.4390 ha         1 0OL       0.145000
@<TRIPOS>BOND
     1     1     2 1   
     2     1     6 1   
     3     1    15 1   
     4     1    16 1   
     5     2     3 1   
     6     2    17 1   
     7     2    18 1   
     8     3     4 1   
     9     3    19 1   
    10     3    20 1   
    11     4     5 1   
    12     4    21 1   
    13     4    22 1   
    14     5     6 1   
    15     5    23 1   
    16     5    24 1   
    17     6     7 1   
    18     7     8 2   
    19     7     9 1   
    20     9    10 ar  
    21     9    14 ar  
    22    10    11 ar  
    23    10    25 1   
    24    11    12 ar  
    25    11    26 1   
    26    12    13 ar  
    27    12    27 1   
    28    13    14 ar  
    29    13    28 1   
    30    14    29 1   
@<TRIPOS>SUBSTRUCTURE
     1 0OL         1 TEMP              0 ****  ****    0 ROOT
