@<TRIPOS>MOLECULE
0OL
   29    30     1     0     0
SMALL
bcc


@<TRIPOS>ATOM
      1 CAJ          0.0000     0.0000     0.0000 c3         1 0OL       0.033500
      2 CAH          1.5310     0.0000     0.0000 c3         1 0OL      -0.040900
      3 CAG          2.0370     0.0000     1.4450 c3         1 0OL      -0.027400
      4 CAI          1.5530    -1.2660     2.1560 c3         1 0OL      -0.040900
      5 CAK          0.0220    -1.2800     2.1800 c3         1 0OL       0.033500
      6 NAN         -0.4740    -1.1330     0.8040 n          1 0OL      -0.145800
      7 CAL         -1.3460    -2.0240     0.2910 c          1 0OL       0.611700
      8 OAA         -1.8020    -1.8540    -0.8230 o          1 0OL      -0.645100
      9 CAM         -1.7480    -3.2060     1.0830 ca         1 0OL      -0.144600
     10 CAE         -2.2010    -3.0500     2.3950 ca         1 0OL      -0.068500
     11 CAC         -2.5800    -4.1560     3.1260 ca         1 0OL      -0.108000
     12 CAB         -2.5130    -5.4190     2.5620 ca         1 0OL      -0.085000
     13 CAD         -2.0650    -5.5790     1.2630 ca         1 0OL      -0.108000
     14 CAF         -1.6840    -4.4810     0.5210 ca         1 0OL      -0.068500
     15 H1          -0.3620     0.9260     0.4300 h1         1 0OL       0.035450
     16 H2          -0.3620    -0.1010    -1.0160 h1         1 0OL       0.035450
     17 H3           1.8920     0.8860    -0.5080 hc         1 0OL       0.021450
     18 H4           1.8920    -0.8860    -0.5080 hc         1 0OL       0.021450
     19 H5           3.1200     0.0220     1.4470 hc         1 0OL       0.016200
     20 H6           1.6520     0.8710     1.9610 hc         1 0OL       0.016200
     21 H7           1.9130    -2.1380     1.6230 hc         1 0OL       0.021450
     22 H8           1.9300    -1.2750     3.1710 hc         1 0OL       0.021450
     23 H9          -0.3250    -2.2200     2.5920 h1         1 0OL       0.035450
     24 H10         -0.3390    -0.4560     2.7840 h1         1 0OL       0.035450
     25 H11         -2.2540    -2.0630     2.8370 ha         1 0OL       0.114500
     26 H12         -2.9310    -4.0370     4.1430 ha         1 0OL       0.105500
     27 H13         -2.8120    -6.2850     3.1400 ha         1 0OL       0.103000
     28 H14         -2.0150    -6.5700     0.8270 ha         1 0OL       0.105500
     29 H15         -1.3340    -4.6080    -0.4970 ha         1 0OL       0.114500
@<TRIPOS>BOND
     1     1     2 1   
     2     1     6 1   
     3     1    15 1   
     4     1    16 1   
     5     2     3 1   
     6     2    17 1   
     7     2    18 1   
     8     3     4 1   
     9     3    19 1   
    10     3    20 1   
    11     4     5 1   
    12     4    21 1   
    13     4    22 1   
    14     5     6 1   
    15     5    23 1   
    16     5    24 1   
    17     6     7 1   
    18     7     8 2   
    19     7     9 1   
    20     9    10 ar  
    21     9    14 ar  
    22    10    11 ar  
    23    10    25 1   
    24    11    12 ar  
    25    11    26 1   
    26    12    13 ar  
    27    12    27 1   
    28    13    14 ar  
    29    13    28 1   
    30    14    29 1   
@<TRIPOS>SUBSTRUCTURE
     1 0OL         1 TEMP              0 ****  ****    0 ROOT
