@<TRIPOS>MOLECULE
molecule
   29    30     1     0     0
SMALL
bcc


@<TRIPOS>ATOM
      1 CAJ          0.0000     0.0000     0.0000 c3         1 0OL       0.099500
      2 CAH          1.5310     0.0000     0.0000 c3         1 0OL      -0.099400
      3 CAG          2.0370     0.0000     1.4450 c3         1 0OL      -0.081400
      4 CAI          1.5530    -1.2660     2.1560 c3         1 0OL      -0.099400
      5 CAK          0.0220    -1.2800     2.1800 c3         1 0OL       0.099500
      6 NAN         -0.4740    -1.1330     0.8040 n          1 0OL      -0.485800
      7 CAL         -1.3460    -2.0240     0.2910 c          1 0OL       0.676700
      8 OAA         -1.8020    -1.8540    -0.8230 o          1 0OL      -0.604100
      9 CAM         -1.7480    -3.2060     1.0830 ca         1 0OL      -0.136600
     10 CAE         -2.2010    -3.0500     2.3950 ca         1 0OL      -0.095000
     11 CAC         -2.5800    -4.1560     3.1260 ca         1 0OL      -0.136000
     12 CAB         -2.5130    -5.4190     2.5620 ca         1 0OL      -0.112000
     13 CAD         -2.0650    -5.5790     1.2630 ca         1 0OL      -0.136000
     14 CAF         -1.6840    -4.4810     0.5210 ca         1 0OL      -0.095000
     15 H1          -0.3620     0.9260     0.4300 h1         1 0OL       0.058950
     16 H2          -0.3620    -0.1010    -1.0160 h1         1 0OL       0.058950
     17 H3           1.8920     0.8860    -0.5080 hc         1 0OL       0.050200
     18 H4           1.8920    -0.8860    -0.5080 hc         1 0OL       0.050200
     19 H5           3.1200     0.0220     1.4470 hc         1 0OL       0.042700
     20 H6           1.6520     0.8710     1.9610 hc         1 0OL       0.042700
     21 H7           1.9130    -2.1380     1.6230 hc         1 0OL       0.050200
     22 H8           1.9300    -1.2750     3.1710 hc         1 0OL       0.050200
     23 H9          -0.3250    -2.2200     2.5920 h1         1 0OL       0.058950
     24 H10         -0.3390    -0.4560     2.7840 h1         1 0OL       0.058950
     25 H11         -2.2540    -2.0630     2.8370 ha         1 0OL       0.141500
     26 H12         -2.9310    -4.0370     4.1430 ha         1 0OL       0.133500
     27 H13         -2.8120    -6.2850     3.1400 ha         1 0OL       0.132000
     28 H14         -2.0150    -6.5700     0.8270 ha         1 0OL       0.133500
     29 H15         -1.3340    -4.6080    -0.4970 ha         1 0OL       0.141500
@<TRIPOS>BOND
     1    11    12 ar
     2    11    10 ar
     3    12    13 ar
     4    10     9 ar
     5    13    14 ar
     6     9    14 ar
     7     9     7 1
     8     7     8 2
     9     7     6 1
    10     5     6 1
    11     5     4 1
    12     6     1 1
    13     4     3 1
    14     1     2 1
    15     2     3 1
    16     1    15 1
    17     1    16 1
    18     2    17 1
    19     2    18 1
    20     3    19 1
    21     3    20 1
    22     4    21 1
    23     4    22 1
    24     5    23 1
    25     5    24 1
    26    10    25 1
    27    11    26 1
    28    12    27 1
    29    13    28 1
    30    14    29 1
@<TRIPOS>SUBSTRUCTURE
     1 0OL         1 TEMP              0 ****  ****    0 ROOT
