@<TRIPOS>MOLECULE
molecule
   27    28     1     0     0
SMALL
bcc


@<TRIPOS>ATOM
      1 CAG          0.0000     0.0000     0.0000 ca         1 0OM      -0.103000
      2 CAC          1.3830     0.0000     0.0000 ca         1 0OM      -0.132000
      3 CAB          2.0730     0.0000     1.1980 ca         1 0OM      -0.116000
      4 CAD          1.3820    -0.0020     2.3950 ca         1 0OM      -0.132000
      5 CAH         -0.0000    -0.0020     2.3940 ca         1 0OM      -0.103000
      6 CAO         -0.6910     0.0040     1.1970 ca         1 0OM      -0.102300
      7 CAK         -2.1980     0.0040     1.1970 c3         1 0OM       0.199700
      8 OAM         -2.6830     1.3730     1.2050 os         1 0OM      -0.423900
      9 CAN         -4.0180     1.5500     1.2060 c          1 0OM       0.652700
     10 OAA         -4.7580     0.5860     1.2000 o          1 0OM      -0.551000
     11 CAP         -4.5830     2.9150     1.2140 ca         1 0OM      -0.260900
     12 CAI         -5.9690     3.1120     1.2140 ca         1 0OM      -0.032000
     13 CAE         -6.4470     4.4100     1.2220 ca         1 0OM      -0.271300
     14 CAF         -5.5490     5.4630     1.2280 ca         1 0OM       0.447200
     15 NAL         -4.2470     5.2470     1.2270 nb         1 0OM      -0.700000
     16 CAJ         -3.7440     4.0300     1.2260 ca         1 0OM       0.469200
     17 H1          -0.5420     0.0020    -0.9380 ha         1 0OM       0.134000
     18 H2           1.9250    -0.0010    -0.9380 ha         1 0OM       0.133000
     19 H3           3.1560    -0.0000     1.1980 ha         1 0OM       0.131000
     20 H4           1.9240    -0.0040     3.3330 ha         1 0OM       0.133000
     21 H5          -0.5420    -0.0010     3.3320 ha         1 0OM       0.134000
     22 H6          -2.5590    -0.5120     2.0780 h1         1 0OM       0.057700
     23 H7          -2.5590    -0.5010     0.3090 h1         1 0OM       0.057700
     24 H8          -6.6500     2.2690     1.2100 ha         1 0OM       0.162000
     25 H9          -7.5140     4.6010     1.2230 ha         1 0OM       0.146000
     26 H10         -5.9210     6.4800     1.2310 h4         1 0OM       0.027100
     27 H11         -2.6690     3.8940     1.2250 h4         1 0OM       0.044100
@<TRIPOS>BOND
     1    15    16 ar  
     2    15    14 ar  
     3    16    11 ar  
     4    10     9 2   
     5    14    13 ar  
     6    11     9 1   
     7    11    12 ar  
     8     9     8 1   
     9    13    12 ar  
    10     8     7 1   
    11     7     6 1   
    12     6     5 ar  
    13     6     1 ar  
    14     5     4 ar  
    15     1     2 ar  
    16     4     3 ar  
    17     2     3 ar  
    18     1    17 1   
    19     2    18 1   
    20     3    19 1   
    21     4    20 1   
    22     5    21 1   
    23     7    22 1   
    24     7    23 1   
    25    12    24 1   
    26    13    25 1   
    27    14    26 1   
    28    16    27 1   
@<TRIPOS>SUBSTRUCTURE
     1 0OM         1 TEMP              0 ****  ****    0 ROOT
