@<TRIPOS>MOLECULE
0OM
   27    28     1     0     0
SMALL
bcc


@<TRIPOS>ATOM
      1 CAG          0.0000     0.0000     0.0000 ca         1 0OM      -0.074000
      2 CAC          1.3830     0.0000     0.0000 ca         1 0OM      -0.105000
      3 CAB          2.0730     0.0000     1.1980 ca         1 0OM      -0.089000
      4 CAD          1.3820    -0.0020     2.3950 ca         1 0OM      -0.105000
      5 CAH         -0.0000    -0.0020     2.3940 ca         1 0OM      -0.074000
      6 CAO         -0.6910     0.0040     1.1970 ca         1 0OM      -0.122300
      7 CAK         -2.1980     0.0040     1.1970 c3         1 0OM       0.289700
      8 OAM         -2.6830     1.3730     1.2050 os         1 0OM      -0.408900
      9 CAN         -4.0180     1.5500     1.2060 c          1 0OM       0.725700
     10 OAA         -4.7580     0.5860     1.2000 o          1 0OM      -0.590000
     11 CAP         -4.5830     2.9150     1.2140 ca         1 0OM      -0.272900
     12 CAI         -5.9690     3.1120     1.2140 ca         1 0OM      -0.002000
     13 CAE         -6.4470     4.4100     1.2220 ca         1 0OM      -0.241300
     14 CAF         -5.5490     5.4630     1.2280 ca         1 0OM       0.435200
     15 NAL         -4.2470     5.2470     1.2270 nb         1 0OM      -0.595000
     16 CAJ         -3.7440     4.0300     1.2260 ca         1 0OM       0.452200
     17 H1          -0.5420     0.0020    -0.9380 ha         1 0OM       0.106000
     18 H2           1.9250    -0.0010    -0.9380 ha         1 0OM       0.104000
     19 H3           3.1560    -0.0000     1.1980 ha         1 0OM       0.102000
     20 H4           1.9240    -0.0040     3.3330 ha         1 0OM       0.104000
     21 H5          -0.5420    -0.0010     3.3320 ha         1 0OM       0.106000
     22 H6          -2.5590    -0.5120     2.0780 h1         1 0OM       0.014700
     23 H7          -2.5590    -0.5010     0.3090 h1         1 0OM       0.014700
     24 H8          -6.6500     2.2690     1.2100 ha         1 0OM       0.129000
     25 H9          -7.5140     4.6010     1.2230 ha         1 0OM       0.118000
     26 H10         -5.9210     6.4800     1.2310 h4         1 0OM      -0.019900
     27 H11         -2.6690     3.8940     1.2250 h4         1 0OM      -0.004900
@<TRIPOS>BOND
     1     1     2 ar  
     2     1     6 ar  
     3     1    17 1   
     4     2     3 ar  
     5     2    18 1   
     6     3     4 ar  
     7     3    19 1   
     8     4     5 ar  
     9     4    20 1   
    10     5     6 ar  
    11     5    21 1   
    12     6     7 1   
    13     7     8 1   
    14     7    22 1   
    15     7    23 1   
    16     8     9 1   
    17     9    10 2   
    18     9    11 1   
    19    11    12 ar  
    20    11    16 ar  
    21    12    13 ar  
    22    12    24 1   
    23    13    14 ar  
    24    13    25 1   
    25    14    15 ar  
    26    14    26 1   
    27    15    16 ar  
    28    16    27 1   
@<TRIPOS>SUBSTRUCTURE
     1 0OM         1 TEMP              0 ****  ****    0 ROOT
