@<TRIPOS>MOLECULE
0OM
   27    28     1     0     0
SMALL
bcc


@<TRIPOS>ATOM
      1 CAG         -0.0390    -0.9680     0.0300 ca         1 0OM      -0.113000
      2 CAC          1.3420    -1.0070    -0.1470 ca         1 0OM      -0.131000
      3 CAB          2.1760    -0.2410     0.6690 ca         1 0OM      -0.124000
      4 CAD          1.6240     0.5640     1.6650 ca         1 0OM      -0.131000
      5 CAH          0.2430     0.6010     1.8500 ca         1 0OM      -0.113000
      6 CAO         -0.5950    -0.1660     1.0340 ca         1 0OM      -0.095300
      7 CAK         -2.0720    -0.1770     1.2350 c3         1 0OM       0.186700
      8 OAM         -2.4690     1.1440     1.6520 os         1 0OM      -0.438900
      9 CAN         -3.8110     1.3280     1.8610 c          1 0OM       0.653700
     10 OAA         -4.5630     0.3640     1.6950 o          1 0OM      -0.540000
     11 CAP         -4.1690     2.6900     2.2670 ca         1 0OM      -0.255900
     12 CAI         -3.2200     3.7140     2.3820 ca         1 0OM      -0.033000
     13 CAE         -3.6490     4.9820     2.7730 ca         1 0OM      -0.264300
     14 CAF         -5.0170     5.1780     3.0360 ca         1 0OM       0.425200
     15 NAL         -5.9440     4.2040     2.9300 nb         1 0OM      -0.672000
     16 CAJ         -5.5230     2.9840     2.5520 ca         1 0OM       0.453200
     17 H1          -0.6940    -1.5690    -0.6180 ha         1 0OM       0.137500
     18 H2           1.7750    -1.6420    -0.9340 ha         1 0OM       0.133500
     19 H3           3.2650    -0.2730     0.5260 ha         1 0OM       0.133000
     20 H4           2.2790     1.1700     2.3080 ha         1 0OM       0.133500
     21 H5          -0.1980     1.2380     2.6320 ha         1 0OM       0.137500
     22 H6          -2.6210    -0.4340     0.2900 h1         1 0OM       0.064200
     23 H7          -2.3630    -0.9060     2.0390 h1         1 0OM       0.064200
     24 H8          -2.1590     3.5110     2.1650 ha         1 0OM       0.161000
     25 H9          -2.9380     5.8120     2.8750 ha         1 0OM       0.151000
     26 H10         -5.3980     6.1680     3.3480 h4         1 0OM       0.028100
     27 H11         -6.2940     2.1940     2.4670 h4         1 0OM       0.048100
@<TRIPOS>BOND
     1     1     2 ar  
     2     1     6 ar  
     3     1    17 1   
     4     2     3 ar  
     5     2    18 1   
     6     3     4 ar  
     7     3    19 1   
     8     4     5 ar  
     9     4    20 1   
    10     5     6 ar  
    11     5    21 1   
    12     6     7 1   
    13     7     8 1   
    14     7    22 1   
    15     7    23 1   
    16     8     9 1   
    17     9    10 2   
    18     9    11 1   
    19    11    12 ar  
    20    11    16 ar  
    21    12    13 ar  
    22    12    24 1   
    23    13    14 ar  
    24    13    25 1   
    25    14    15 ar  
    26    14    26 1   
    27    15    16 ar  
    28    16    27 1   
@<TRIPOS>SUBSTRUCTURE
     1 0OM         1 TEMP              0 ****  ****    0 ROOT
