@<TRIPOS>MOLECULE
molecule
   25    26     1     0     0
SMALL
bcc


@<TRIPOS>ATOM
      1 CAG          0.0000     0.0000     0.0000 ca         1 0ON      -0.144000
      2 CAC          1.3810     0.0000     0.0000 ca         1 0ON      -0.110500
      3 CAB          2.0730     0.0000     1.1970 ca         1 0ON      -0.144000
      4 CAD          1.3860     0.0010     2.3970 ca         1 0ON      -0.110500
      5 CAH          0.0050     0.0020     2.4040 ca         1 0ON      -0.144000
      6 CAN         -0.6940     0.0020     1.2030 ca         1 0ON       0.055600
      7 NAL         -2.0920     0.0090     1.2070 ns         1 0ON      -0.473100
      8 CAM         -2.7710    -0.6280     0.2330 c          1 0ON       0.677700
      9 OAA         -2.1720    -1.2890    -0.5940 o          1 0ON      -0.590100
     10 CAO         -4.2440    -0.5250     0.1680 ca         1 0ON      -0.276900
     11 CAI         -4.9610    -1.1820    -0.8390 ca         1 0ON      -0.031000
     12 CAE         -6.3390    -1.0530    -0.8530 ca         1 0ON      -0.264300
     13 CAF         -6.9580    -0.2860     0.1180 ca         1 0ON       0.442200
     14 NAK         -6.2560     0.3210     1.0550 nb         1 0ON      -0.695000
     15 CAJ         -4.9440     0.2250     1.1150 ca         1 0ON       0.443200
     16 H1          -0.5420    -0.0000    -0.9380 ha         1 0ON       0.143500
     17 H2           1.9220    -0.0010    -0.9380 ha         1 0ON       0.132500
     18 H3           3.1570    -0.0000     1.1950 ha         1 0ON       0.130000
     19 H4           1.9320     0.0010     3.3330 ha         1 0ON       0.132500
     20 H5          -0.5330     0.0030     3.3440 ha         1 0ON       0.143500
     21 H6          -2.5880     0.4660     1.9460 hn         1 0ON       0.324500
     22 H7          -4.4510    -1.7760    -1.5880 ha         1 0ON       0.165000
     23 H8          -6.9260    -1.5460    -1.6180 ha         1 0ON       0.146000
     24 H9          -8.0360    -0.1820     0.1070 h4         1 0ON       0.028100
     25 H10         -4.4030     0.7390     1.9000 h4         1 0ON       0.017100
@<TRIPOS>BOND
     1     3     2 ar  
     2     3     4 ar  
     3     2     1 ar  
     4     4     5 ar  
     5     1     6 ar  
     6     5     6 ar  
     7     6     7 1   
     8     7     8 1   
     9     8     9 2   
    10     8    10 1   
    11    15    10 ar  
    12    15    14 ar  
    13    10    11 ar  
    14    14    13 ar  
    15    11    12 ar  
    16    13    12 ar  
    17     1    16 1   
    18     2    17 1   
    19     3    18 1   
    20     4    19 1   
    21     5    20 1   
    22     7    21 1   
    23    11    22 1   
    24    12    23 1   
    25    13    24 1   
    26    15    25 1   
@<TRIPOS>SUBSTRUCTURE
     1 0ON         1 TEMP              0 ****  ****    0 ROOT
