@<TRIPOS>MOLECULE
0ON
   25    26     1     0     0
SMALL
bcc


@<TRIPOS>ATOM
      1 CAG          0.0000     0.0000     0.0000 ca         1 0ON      -0.117000
      2 CAC          1.3810     0.0000     0.0000 ca         1 0ON      -0.081500
      3 CAB          2.0730     0.0000     1.1970 ca         1 0ON      -0.114000
      4 CAD          1.3860     0.0010     2.3970 ca         1 0ON      -0.081500
      5 CAH          0.0050     0.0020     2.4040 ca         1 0ON      -0.117000
      6 CAN         -0.6940     0.0020     1.2030 ca         1 0ON      -0.091400
      7 NAL         -2.0920     0.0090     1.2070 ns         1 0ON      -0.030100
      8 CAM         -2.7710    -0.6280     0.2330 c          1 0ON       0.588700
      9 OAA         -2.1720    -1.2890    -0.5940 o          1 0ON      -0.633100
     10 CAO         -4.2440    -0.5250     0.1680 ca         1 0ON      -0.283900
     11 CAI         -4.9610    -1.1820    -0.8390 ca         1 0ON       0.001000
     12 CAE         -6.3390    -1.0530    -0.8530 ca         1 0ON      -0.233300
     13 CAF         -6.9580    -0.2860     0.1180 ca         1 0ON       0.427200
     14 NAK         -6.2560     0.3210     1.0550 nb         1 0ON      -0.587000
     15 CAJ         -4.9440     0.2250     1.1150 ca         1 0ON       0.421200
     16 H1          -0.5420    -0.0000    -0.9380 ha         1 0ON       0.121000
     17 H2           1.9220    -0.0010    -0.9380 ha         1 0ON       0.103000
     18 H3           3.1570    -0.0000     1.1950 ha         1 0ON       0.103000
     19 H4           1.9320     0.0010     3.3330 ha         1 0ON       0.103000
     20 H5          -0.5330     0.0030     3.3440 ha         1 0ON       0.121000
     21 H6          -2.5880     0.4660     1.9460 hn         1 0ON       0.172500
     22 H7          -4.4510    -1.7760    -1.5880 ha         1 0ON       0.132000
     23 H8          -6.9260    -1.5460    -1.6180 ha         1 0ON       0.118000
     24 H9          -8.0360    -0.1820     0.1070 h4         1 0ON      -0.018900
     25 H10         -4.4030     0.7390     1.9000 h4         1 0ON      -0.023900
@<TRIPOS>BOND
     1     1     2 ar  
     2     1     6 ar  
     3     1    16 1   
     4     2     3 ar  
     5     2    17 1   
     6     3     4 ar  
     7     3    18 1   
     8     4     5 ar  
     9     4    19 1   
    10     5     6 ar  
    11     5    20 1   
    12     6     7 1   
    13     7     8 1   
    14     7    21 1   
    15     8     9 2   
    16     8    10 1   
    17    10    11 ar  
    18    10    15 ar  
    19    11    12 ar  
    20    11    22 1   
    21    12    13 ar  
    22    12    23 1   
    23    13    14 ar  
    24    13    24 1   
    25    14    15 ar  
    26    15    25 1   
@<TRIPOS>SUBSTRUCTURE
     1 0ON         1 TEMP              0 ****  ****    0 ROOT
