@<TRIPOS>MOLECULE
0ON
   25    26     1     0     0
SMALL
bcc


@<TRIPOS>ATOM
      1 CAG          0.0750    -0.6100     0.1780 ca         1 0ON      -0.167500
      2 CAC          1.4650    -0.5350     0.1560 ca         1 0ON      -0.104500
      3 CAB          2.1710     0.0180     1.2210 ca         1 0ON      -0.155000
      4 CAD          1.4730     0.5030     2.3270 ca         1 0ON      -0.104500
      5 CAH          0.0860     0.4370     2.3730 ca         1 0ON      -0.167500
      6 CAN         -0.6400    -0.1240     1.2930 ca         1 0ON       0.066600
      7 NAL         -2.0430    -0.1500     1.3780 ns         1 0ON      -0.467100
      8 CAM         -2.9220    -0.8260     0.5440 c          1 0ON       0.685700
      9 OAA         -2.5550    -1.5140    -0.4260 o          1 0ON      -0.582100
     10 CAO         -4.3690    -0.6980     0.8820 ca         1 0ON      -0.267900
     11 CAI         -5.2040    -1.8110     0.7090 ca         1 0ON      -0.040000
     12 CAE         -6.5600    -1.6850     1.0100 ca         1 0ON      -0.252300
     13 CAF         -7.0350    -0.4420     1.4660 ca         1 0ON       0.414200
     14 NAK         -6.2490     0.6420     1.6230 nb         1 0ON      -0.666000
     15 CAJ         -4.9410     0.5090     1.3320 ca         1 0ON       0.419200
     16 H1          -0.4550    -1.0550    -0.6800 ha         1 0ON       0.149500
     17 H2           2.0070    -0.9210    -0.7210 ha         1 0ON       0.133500
     18 H3           3.2680     0.0720     1.1930 ha         1 0ON       0.133000
     19 H4           2.0220     0.9420     3.1740 ha         1 0ON       0.133500
     20 H5          -0.4400     0.8260     3.2580 ha         1 0ON       0.149500
     21 H6          -2.4320     0.3020     2.1760 hn         1 0ON       0.318500
     22 H7          -4.7850    -2.7570     0.3320 ha         1 0ON       0.163000
     23 H8          -7.2470    -2.5340     0.8890 ha         1 0ON       0.152000
     24 H9          -8.1020    -0.2990     1.7170 h4         1 0ON       0.028100
     25 H10         -4.3370     1.4270     1.4510 h4         1 0ON       0.027100
@<TRIPOS>BOND
     1     1     2 ar  
     2     1     6 ar  
     3     1    16 1   
     4     2     3 ar  
     5     2    17 1   
     6     3     4 ar  
     7     3    18 1   
     8     4     5 ar  
     9     4    19 1   
    10     5     6 ar  
    11     5    20 1   
    12     6     7 1   
    13     7     8 1   
    14     7    21 1   
    15     8     9 2   
    16     8    10 1   
    17    10    11 ar  
    18    10    15 ar  
    19    11    12 ar  
    20    11    22 1   
    21    12    13 ar  
    22    12    23 1   
    23    13    14 ar  
    24    13    24 1   
    25    14    15 ar  
    26    15    25 1   
@<TRIPOS>SUBSTRUCTURE
     1 0ON         1 TEMP              0 ****  ****    0 ROOT
