@<TRIPOS>MOLECULE
molecule
   27    28     1     0     0
SMALL
bcc


@<TRIPOS>ATOM
      1 CAG          0.0000     0.0000     0.0000 ca         1 0OO      -0.142000
      2 CAC          1.3820     0.0000     0.0000 ca         1 0OO      -0.117000
      3 CAB          2.0740     0.0000     1.1960 ca         1 0OO      -0.133000
      4 CAD          1.3870    -0.0000     2.3960 ca         1 0OO      -0.117000
      5 CAH          0.0060     0.0010     2.4010 ca         1 0OO      -0.142000
      6 CAN         -0.6920     0.0010     1.2020 ca         1 0OO       0.104100
      7 OAL         -2.0510     0.0070     1.2050 os         1 0OO      -0.248200
      8 CAO         -2.6950    -1.0970     0.7440 ca         1 0OO       0.132100
      9 CAJ         -1.9730    -2.2320     0.4080 ca         1 0OO      -0.188000
     10 CAI         -4.0770    -1.0920     0.6140 ca         1 0OO      -0.147000
     11 CAE         -4.7290    -2.2160     0.1450 ca         1 0OO      -0.100000
     12 CAF         -4.0050    -3.3450    -0.1960 ca         1 0OO      -0.141000
     13 CAM         -2.6300    -3.3540    -0.0620 ca         1 0OO      -0.052300
     14 CAK         -1.8460    -4.5880    -0.4270 c3         1 0OO       0.187700
     15 OAA         -1.7250    -5.4320     0.7200 oh         1 0OO      -0.601800
     16 H1          -0.5420     0.0000    -0.9380 ha         1 0OO       0.145000
     17 H2           1.9230    -0.0000    -0.9380 ha         1 0OO       0.135000
     18 H3           3.1580    -0.0000     1.1940 ha         1 0OO       0.132000
     19 H4           1.9320    -0.0000     3.3320 ha         1 0OO       0.135000
     20 H5          -0.5330     0.0010     3.3410 ha         1 0OO       0.145000
     21 H6          -0.8950    -2.2400     0.5120 ha         1 0OO       0.148000
     22 H7          -4.6430    -0.2080     0.8800 ha         1 0OO       0.144000
     23 H8          -5.8070    -2.2120     0.0410 ha         1 0OO       0.136000
     24 H9          -4.5180    -4.2250    -0.5630 ha         1 0OO       0.133000
     25 H10         -2.3610    -5.1220    -1.2160 h1         1 0OO       0.025700
     26 H11         -0.8590    -4.3010    -0.7700 h1         1 0OO       0.025700
     27 H12         -1.2340    -6.2040     0.4910 ho         1 0OO       0.401000
@<TRIPOS>BOND
     1     3     4 ar
     2     3     2 ar
     3     4     5 ar
     4     2     1 ar
     5     5     6 ar
     6     1     6 ar
     7     6     7 1
     8    10    11 ar
     9    10     8 ar
    10     7     8 1
    11    11    12 ar
    12     8     9 ar
    13    12    13 ar
    14     9    13 ar
    15    13    14 1
    16    14    15 1
    17     1    16 1
    18     2    17 1
    19     3    18 1
    20     4    19 1
    21     5    20 1
    22     9    21 1
    23    10    22 1
    24    11    23 1
    25    12    24 1
    26    14    25 1
    27    14    26 1
    28    15    27 1
@<TRIPOS>SUBSTRUCTURE
     1 0OO         1 TEMP              0 ****  ****    0 ROOT
