@<TRIPOS>MOLECULE
0OO
   27    28     1     0     0
SMALL
bcc


@<TRIPOS>ATOM
      1 CAG          0.0000     0.0000     0.0000 ca         1 0OO      -0.124000
      2 CAC          1.3820     0.0000     0.0000 ca         1 0OO      -0.085000
      3 CAB          2.0740     0.0000     1.1960 ca         1 0OO      -0.111000
      4 CAD          1.3870    -0.0000     2.3960 ca         1 0OO      -0.085000
      5 CAH          0.0060     0.0010     2.4010 ca         1 0OO      -0.124000
      6 CAN         -0.6920     0.0010     1.2020 ca         1 0OO       0.109100
      7 OAL         -2.0510     0.0070     1.2050 os         1 0OO      -0.219200
      8 CAO         -2.6950    -1.0970     0.7440 ca         1 0OO       0.139100
      9 CAJ         -1.9730    -2.2320     0.4080 ca         1 0OO      -0.179000
     10 CAI         -4.0770    -1.0920     0.6140 ca         1 0OO      -0.133000
     11 CAE         -4.7290    -2.2160     0.1450 ca         1 0OO      -0.068000
     12 CAF         -4.0050    -3.3450    -0.1960 ca         1 0OO      -0.118000
     13 CAM         -2.6300    -3.3540    -0.0620 ca         1 0OO      -0.065300
     14 CAK         -1.8460    -4.5880    -0.4270 c3         1 0OO       0.281700
     15 OAA         -1.7250    -5.4320     0.7200 oh         1 0OO      -0.585800
     16 H1          -0.5420     0.0000    -0.9380 ha         1 0OO       0.117500
     17 H2           1.9230    -0.0000    -0.9380 ha         1 0OO       0.104500
     18 H3           3.1580    -0.0000     1.1940 ha         1 0OO       0.104000
     19 H4           1.9320    -0.0000     3.3320 ha         1 0OO       0.104500
     20 H5          -0.5330     0.0010     3.3410 ha         1 0OO       0.117500
     21 H6          -0.8950    -2.2400     0.5120 ha         1 0OO       0.131000
     22 H7          -4.6430    -0.2080     0.8800 ha         1 0OO       0.115000
     23 H8          -5.8070    -2.2120     0.0410 ha         1 0OO       0.103000
     24 H9          -4.5180    -4.2250    -0.5630 ha         1 0OO       0.108000
     25 H10         -0.8590    -4.3010    -0.7700 h1         1 0OO      -0.013300
     26 H11         -2.3610    -5.1220    -1.2160 h1         1 0OO      -0.013300
     27 H12         -1.2340    -6.2040     0.4910 ho         1 0OO       0.387000
@<TRIPOS>BOND
     1     1     2 ar  
     2     1     6 ar  
     3     1    16 1   
     4     2     3 ar  
     5     2    17 1   
     6     3     4 ar  
     7     3    18 1   
     8     4     5 ar  
     9     4    19 1   
    10     5     6 ar  
    11     5    20 1   
    12     6     7 1   
    13     7     8 1   
    14     8     9 ar  
    15     8    10 ar  
    16     9    13 ar  
    17     9    21 1   
    18    10    11 ar  
    19    10    22 1   
    20    11    12 ar  
    21    11    23 1   
    22    12    13 ar  
    23    12    24 1   
    24    13    14 1   
    25    14    15 1   
    26    14    25 1   
    27    14    26 1   
    28    15    27 1   
@<TRIPOS>SUBSTRUCTURE
     1 0OO         1 TEMP              0 ****  ****    0 ROOT
