@<TRIPOS>MOLECULE
0OO
   27    28     1     0     0
SMALL
bcc


@<TRIPOS>ATOM
      1 CAG         -0.3650    -0.4710     0.3160 ca         1 0OO      -0.159500
      2 CAC          0.9380    -0.1780    -0.0850 ca         1 0OO      -0.107500
      3 CAB          1.8760     0.2740     0.8420 ca         1 0OO      -0.152000
      4 CAD          1.5170     0.4350     2.1810 ca         1 0OO      -0.107500
      5 CAH          0.2230     0.1430     2.6060 ca         1 0OO      -0.159500
      6 CAN         -0.7130    -0.3080     1.6620 ca         1 0OO       0.107100
      7 OAL         -2.0070    -0.4830     2.1430 os         1 0OO      -0.252200
      8 CAO         -2.7790    -1.4630     1.5230 ca         1 0OO       0.102100
      9 CAJ         -4.1420    -1.1690     1.3950 ca         1 0OO      -0.144000
     10 CAI         -2.2620    -2.7080     1.1430 ca         1 0OO      -0.168000
     11 CAE         -3.1320    -3.6680     0.6300 ca         1 0OO      -0.111000
     12 CAF         -4.4950    -3.3950     0.5030 ca         1 0OO      -0.119000
     13 CAM         -5.0010    -2.1500     0.8870 ca         1 0OO      -0.069300
     14 CAK         -6.4540    -1.8220     0.7770 c3         1 0OO       0.175700
     15 OAA         -7.1280    -2.8730     0.1000 oh         1 0OO      -0.598800
     16 H1          -1.1120    -0.8280    -0.4080 ha         1 0OO       0.149000
     17 H2           1.2210    -0.3030    -1.1400 ha         1 0OO       0.134500
     18 H3           2.9010     0.5040     0.5180 ha         1 0OO       0.134000
     19 H4           2.2590     0.7930     2.9100 ha         1 0OO       0.134500
     20 H5          -0.0760     0.2680     3.6560 ha         1 0OO       0.149000
     21 H6          -4.5210    -0.1850     1.7040 ha         1 0OO       0.148000
     22 H7          -1.1880    -2.9150     1.2490 ha         1 0OO       0.148000
     23 H8          -2.7410    -4.6500     0.3280 ha         1 0OO       0.136000
     24 H9          -5.1790    -4.1560     0.0970 ha         1 0OO       0.156000
     25 H10         -6.8900    -1.6970     1.8080 h1         1 0OO       0.034700
     26 H11         -6.5880    -0.8600     0.2080 h1         1 0OO       0.034700
     27 H12         -8.0570    -2.6180     0.0650 ho         1 0OO       0.404000
@<TRIPOS>BOND
     1     1     2 ar  
     2     1     6 ar  
     3     1    16 1   
     4     2     3 ar  
     5     2    17 1   
     6     3     4 ar  
     7     3    18 1   
     8     4     5 ar  
     9     4    19 1   
    10     5     6 ar  
    11     5    20 1   
    12     6     7 1   
    13     7     8 1   
    14     8     9 ar  
    15     8    10 ar  
    16     9    13 ar  
    17     9    21 1   
    18    10    11 ar  
    19    10    22 1   
    20    11    12 ar  
    21    11    23 1   
    22    12    13 ar  
    23    12    24 1   
    24    13    14 1   
    25    14    15 1   
    26    14    25 1   
    27    14    26 1   
    28    15    27 1   
@<TRIPOS>SUBSTRUCTURE
     1 0OO         1 TEMP              0 ****  ****    0 ROOT
