@<TRIPOS>MOLECULE
0OP
   30    31     1     0     0
SMALL
bcc


@<TRIPOS>ATOM
      1 CAF          0.0000     0.0000     0.0000 ca         1 0OP      -0.075500
      2 CAC          1.3830     0.0000     0.0000 ca         1 0OP      -0.105500
      3 CAB          2.0730     0.0000     1.1960 ca         1 0OP      -0.091000
      4 CAD          1.3830     0.0000     2.3940 ca         1 0OP      -0.105500
      5 CAG          0.0010     0.0010     2.3940 ca         1 0OP      -0.075500
      6 CAN         -0.6910     0.0010     1.1970 ca         1 0OP      -0.113300
      7 CAL         -2.1980     0.0080     1.1970 c3         1 0OP       0.263700
      8 OAM         -2.6800    -1.3380     1.1950 os         1 0OP      -0.301900
      9 CAP         -4.0280    -1.5110     1.1940 ca         1 0OP       0.147100
     10 CAJ         -4.5650    -2.7900     1.1930 ca         1 0OP      -0.119000
     11 CAI         -4.8690    -0.4070     1.2030 ca         1 0OP      -0.209000
     12 CAE         -6.2390    -0.5860     1.2030 ca         1 0OP      -0.060000
     13 CAH         -6.7730    -1.8610     1.1960 ca         1 0OP      -0.123000
     14 CAO         -5.9360    -2.9620     1.1920 ca         1 0OP      -0.067300
     15 CAK         -6.5200    -4.3520     1.1900 c3         1 0OP       0.282700
     16 OAA         -6.7040    -4.7930     2.5370 oh         1 0OP      -0.586800
     17 H1          -0.5420    -0.0000    -0.9380 ha         1 0OP       0.106500
     18 H2           1.9240    -0.0000    -0.9380 ha         1 0OP       0.103500
     19 H3           3.1570    -0.0010     1.1960 ha         1 0OP       0.102000
     20 H4           1.9250     0.0000     3.3320 ha         1 0OP       0.103500
     21 H5          -0.5410     0.0020     3.3320 ha         1 0OP       0.106500
     22 H6          -2.5570     0.5210     0.3140 h1         1 0OP       0.004200
     23 H7          -2.5570     0.5180     2.0830 h1         1 0OP       0.004200
     24 H8          -3.9100    -3.6530     1.1900 ha         1 0OP       0.120000
     25 H9          -4.4520     0.5930     1.2090 ha         1 0OP       0.119000
     26 H10         -6.8970     0.2750     1.2080 ha         1 0OP       0.100000
     27 H11         -7.8470    -1.9980     1.1960 ha         1 0OP       0.108000
     28 H12         -5.8440    -5.0260     0.6780 h1         1 0OP      -0.012800
     29 H13         -7.4750    -4.3410     0.6800 h1         1 0OP      -0.012800
     30 H14         -7.0690    -5.6620     2.5360 ho         1 0OP       0.387000
@<TRIPOS>BOND
     1     1     2 ar  
     2     1     6 ar  
     3     1    17 1   
     4     2     3 ar  
     5     2    18 1   
     6     3     4 ar  
     7     3    19 1   
     8     4     5 ar  
     9     4    20 1   
    10     5     6 ar  
    11     5    21 1   
    12     6     7 1   
    13     7     8 1   
    14     7    22 1   
    15     7    23 1   
    16     8     9 1   
    17     9    10 ar  
    18     9    11 ar  
    19    10    14 ar  
    20    10    24 1   
    21    11    12 ar  
    22    11    25 1   
    23    12    13 ar  
    24    12    26 1   
    25    13    14 ar  
    26    13    27 1   
    27    14    15 1   
    28    15    16 1   
    29    15    28 1   
    30    15    29 1   
    31    16    30 1   
@<TRIPOS>SUBSTRUCTURE
     1 0OP         1 TEMP              0 ****  ****    0 ROOT
