@<TRIPOS>MOLECULE
0OP
   30    31     1     0     0
SMALL
bcc


@<TRIPOS>ATOM
      1 CAF          0.0850    -0.3790     0.3060 ca         1 0OP      -0.113000
      2 CAC          1.4030    -0.7230     0.6050 ca         1 0OP      -0.132000
      3 CAB          1.9420    -0.4110     1.8530 ca         1 0OP      -0.126000
      4 CAD          1.1600     0.2450     2.8040 ca         1 0OP      -0.132000
      5 CAG         -0.1560     0.5940     2.5060 ca         1 0OP      -0.113000
      6 CAN         -0.7000     0.2840     1.2560 ca         1 0OP      -0.120300
      7 CAL         -2.0940     0.6900     0.9080 c3         1 0OP       0.175700
      8 OAM         -2.9750     0.6700     2.0350 os         1 0OP      -0.340900
      9 CAP         -3.4810    -0.5770     2.3780 ca         1 0OP       0.103100
     10 CAJ         -4.1800    -1.3710     1.4600 ca         1 0OP      -0.138000
     11 CAI         -3.3620    -0.9590     3.7220 ca         1 0OP      -0.138000
     12 CAE         -3.9540    -2.1490     4.1410 ca         1 0OP      -0.114000
     13 CAH         -4.6430    -2.9530     3.2360 ca         1 0OP      -0.147000
     14 CAO         -4.7580    -2.5650     1.8940 ca         1 0OP      -0.070300
     15 CAK         -5.5230    -3.4460     0.9620 c3         1 0OP       0.175700
     16 OAA         -5.3350    -3.0020    -0.3740 oh         1 0OP      -0.599800
     17 H1          -0.3380    -0.6320    -0.6770 ha         1 0OP       0.137000
     18 H2           2.0160    -1.2430    -0.1450 ha         1 0OP       0.131000
     19 H3           2.9810    -0.6850     2.0870 ha         1 0OP       0.130000
     20 H4           1.5820     0.4890     3.7900 ha         1 0OP       0.131000
     21 H5          -0.7830     1.1060     3.2530 ha         1 0OP       0.137000
     22 H6          -2.1100     1.7750     0.6020 h1         1 0OP       0.063200
     23 H7          -2.5000     0.0580     0.0750 h1         1 0OP       0.063200
     24 H8          -4.2810    -1.0640     0.4080 ha         1 0OP       0.158000
     25 H9          -2.8150    -0.3160     4.4260 ha         1 0OP       0.145000
     26 H10         -3.8710    -2.4570     5.1940 ha         1 0OP       0.133000
     27 H11         -5.0990    -3.8950     3.5730 ha         1 0OP       0.130000
     28 H12         -5.1650    -4.5080     1.0590 h1         1 0OP       0.033200
     29 H13         -6.6180    -3.4080     1.2220 h1         1 0OP       0.033200
     30 H14         -5.8630    -3.5880    -0.9280 ho         1 0OP       0.403000
@<TRIPOS>BOND
     1     1     2 ar  
     2     1     6 ar  
     3     1    17 1   
     4     2     3 ar  
     5     2    18 1   
     6     3     4 ar  
     7     3    19 1   
     8     4     5 ar  
     9     4    20 1   
    10     5     6 ar  
    11     5    21 1   
    12     6     7 1   
    13     7     8 1   
    14     7    22 1   
    15     7    23 1   
    16     8     9 1   
    17     9    10 ar  
    18     9    11 ar  
    19    10    14 ar  
    20    10    24 1   
    21    11    12 ar  
    22    11    25 1   
    23    12    13 ar  
    24    12    26 1   
    25    13    14 ar  
    26    13    27 1   
    27    14    15 1   
    28    15    16 1   
    29    15    28 1   
    30    15    29 1   
    31    16    30 1   
@<TRIPOS>SUBSTRUCTURE
     1 0OP         1 TEMP              0 ****  ****    0 ROOT
