@<TRIPOS>MOLECULE
0OQ
   43    46     1     0     0
SMALL
bcc


@<TRIPOS>ATOM
      1 OAB          0.0000     0.0000     0.0000 o          1 0OQ      -0.709500
      2 CAU          1.2200     0.0000     0.0000 c          1 0OQ       0.581700
      3 CAL          1.9150     0.0000     1.2170 cc         1 0OQ      -0.248200
      4 CAF          3.2770    -0.0800     1.2040 cd         1 0OQ      -0.009000
      5 CAG          3.9370    -0.1830    -0.0260 cd         1 0OQ      -0.212000
      6 CAT          3.2340    -0.1680    -1.1900 cc         1 0OQ      -0.108600
      7 NAY          1.8920    -0.0050    -1.1780 n          1 0OQ       0.140000
      8 CAP          1.1070     0.2390    -2.3890 c3         1 0OQ       0.011000
      9 CAV          1.8280    -0.2140    -3.6470 c3         1 0OQ      -0.071700
     10 CAN          1.7840    -1.7260    -3.8160 c3         1 0OQ       0.021000
     11 CAM          3.2700     0.2950    -3.6310 c3         1 0OQ      -0.028400
     12 CAW          4.0070    -0.3650    -2.4720 c3         1 0OQ      -0.006500
     13 CAO          4.0670    -1.8750    -2.7560 c3         1 0OQ       0.056000
     14 NAX          2.6810    -2.3720    -2.8500 n          1 0OQ      -0.154800
     15 CAQ          2.2440    -3.3830    -2.0750 c          1 0OQ       0.609700
     16 OAA          3.0160    -3.9560    -1.3290 o          1 0OQ      -0.629100
     17 CAR          0.8270    -3.8000    -2.1310 ca         1 0OQ      -0.117600
     18 CAH          0.2160    -4.0440    -3.3630 ca         1 0OQ      -0.073500
     19 CAJ         -1.1070    -4.4320    -3.4080 ca         1 0OQ      -0.044500
     20 CAS         -1.8280    -4.5800    -2.2370 ca         1 0OQ      -0.194300
     21 CAZ         -3.2730    -5.0050    -2.2950 c3         1 0OQ       0.638200
     22 FAD         -3.8470    -4.5480    -3.4870 f          1 0OQ      -0.206300
     23 FAE         -3.3510    -6.4000    -2.2450 f          1 0OQ      -0.206300
     24 FAC         -3.9630    -4.4590    -1.2070 f          1 0OQ      -0.206300
     25 CAK         -1.2290    -4.3400    -1.0130 ca         1 0OQ      -0.044500
     26 CAI          0.0950    -3.9560    -0.9540 ca         1 0OQ      -0.073500
     27 H1           1.3790     0.0800     2.1550 ha         1 0OQ       0.137000
     28 H2           3.8380    -0.0820     2.1310 ha         1 0OQ       0.106000
     29 H3           5.0180    -0.2470    -0.0520 ha         1 0OQ       0.124000
     30 H4           0.9030     1.3000    -2.4660 h1         1 0OQ       0.050200
     31 H5           0.1690    -0.2990    -2.3120 h1         1 0OQ       0.050200
     32 H6           1.3260     0.2310    -4.4970 hc         1 0OQ       0.043700
     33 H7           0.7720    -2.0750    -3.6520 h1         1 0OQ       0.042200
     34 H8           2.0980    -1.9820    -4.8210 h1         1 0OQ       0.042200
     35 H9           3.7570     0.0400    -4.5650 hc         1 0OQ       0.029700
     36 H10          3.2750     1.3710    -3.5000 hc         1 0OQ       0.029700
     37 H11          5.0070     0.0430    -2.3780 hc         1 0OQ       0.053700
     38 H12          4.5830    -2.0510    -3.6930 h1         1 0OQ       0.044200
     39 H13          4.5830    -2.3790    -1.9470 h1         1 0OQ       0.044200
     40 H14          0.7800    -3.9290    -4.2810 ha         1 0OQ       0.123000
     41 H15         -1.5820    -4.6220    -4.3630 ha         1 0OQ       0.122000
     42 H16         -1.7990    -4.4600    -0.1000 ha         1 0OQ       0.122000
     43 H17          0.5630    -3.7690     0.0050 ha         1 0OQ       0.123000
@<TRIPOS>BOND
     1     1     2 2   
     2     2     3 1   
     3     2     7 1   
     4     3     4 2   
     5     3    27 1   
     6     4     5 1   
     7     4    28 1   
     8     5     6 2   
     9     5    29 1   
    10     6     7 1   
    11     6    12 1   
    12     7     8 1   
    13     8     9 1   
    14     8    30 1   
    15     8    31 1   
    16     9    10 1   
    17     9    11 1   
    18     9    32 1   
    19    10    14 1   
    20    10    33 1   
    21    10    34 1   
    22    11    12 1   
    23    11    35 1   
    24    11    36 1   
    25    12    13 1   
    26    12    37 1   
    27    13    14 1   
    28    13    38 1   
    29    13    39 1   
    30    14    15 1   
    31    15    16 2   
    32    15    17 1   
    33    17    18 ar  
    34    17    26 ar  
    35    18    19 ar  
    36    18    40 1   
    37    19    20 ar  
    38    19    41 1   
    39    20    21 1   
    40    20    25 ar  
    41    21    22 1   
    42    21    23 1   
    43    21    24 1   
    44    25    26 ar  
    45    25    42 1   
    46    26    43 1   
@<TRIPOS>SUBSTRUCTURE
     1 0OQ         1 TEMP              0 ****  ****    0 ROOT
