@<TRIPOS>MOLECULE
0OQ
   43    46     1     0     0
SMALL
bcc


@<TRIPOS>ATOM
      1 OAB          0.0060     0.2340     0.1380 o          1 0OQ      -0.640500
      2 CAU          1.2530     0.2620     0.1210 c          1 0OQ       0.681700
      3 CAL          2.0880     0.4530     1.3050 cc         1 0OQ      -0.260200
      4 CAF          3.4410     0.4990     1.2060 cd         1 0OQ      -0.037000
      5 CAG          4.0680     0.3470    -0.0630 cd         1 0OQ      -0.260000
      6 CAT          3.2990     0.1540    -1.1930 cc         1 0OQ       0.071400
      7 NAY          1.9180     0.1000    -1.1240 n          1 0OQ      -0.332000
      8 CAP          1.0800    -0.0270    -2.3050 c3         1 0OQ       0.084000
      9 CAV          1.8130    -0.2790    -3.6230 c3         1 0OQ      -0.096700
     10 CAN          2.0970    -1.7720    -3.8500 c3         1 0OQ       0.083000
     11 CAM          3.1180     0.4970    -3.6540 c3         1 0OQ      -0.079400
     12 CAW          3.9860    -0.0320    -2.5230 c3         1 0OQ      -0.054500
     13 CAO          4.2790    -1.5290    -2.7600 c3         1 0OQ       0.096000
     14 NAX          3.0990    -2.3320    -2.9660 n          1 0OQ      -0.464800
     15 CAQ          2.7710    -3.4140    -2.1540 c          1 0OQ       0.669700
     16 OAA          1.6490    -3.9490    -2.2340 o          1 0OQ      -0.580100
     17 CAR          3.8050    -3.9720    -1.2310 ca         1 0OQ      -0.102600
     18 CAH          5.0240    -4.4510    -1.7220 ca         1 0OQ      -0.100000
     19 CAJ          5.9460    -5.0260    -0.8490 ca         1 0OQ      -0.088000
     20 CAS          5.6470    -5.1140     0.5120 ca         1 0OQ      -0.154300
     21 CAZ          6.6690    -5.7160     1.4700 c3         1 0OQ       0.686200
     22 FAD          7.4660    -6.6880     0.9160 f          1 0OQ      -0.234967
     23 FAE          7.5620    -4.8030     1.9790 f          1 0OQ      -0.234967
     24 FAC          6.1300    -6.3140     2.5820 f          1 0OQ      -0.234967
     25 CAK          4.4280    -4.6460     1.0050 ca         1 0OQ      -0.088000
     26 CAI          3.5020    -4.0780     0.1300 ca         1 0OQ      -0.100000
     27 H1           1.5440     0.5650     2.2530 ha         1 0OQ       0.164000
     28 H2           4.0750     0.6520     2.0930 ha         1 0OQ       0.140000
     29 H3           5.1620     0.3840    -0.1380 ha         1 0OQ       0.147000
     30 H4           0.3450    -0.8640    -2.1120 h1         1 0OQ       0.075700
     31 H5           0.4850     0.9290    -2.3950 h1         1 0OQ       0.075700
     32 H6           1.1380     0.0620    -4.4550 hc         1 0OQ       0.077700
     33 H7           2.4720    -1.8980    -4.9080 h1         1 0OQ       0.071200
     34 H8           1.1360    -2.3530    -3.7450 h1         1 0OQ       0.071200
     35 H9           2.9270     1.5930    -3.5220 hc         1 0OQ       0.059200
     36 H10          3.6370     0.3520    -4.6360 hc         1 0OQ       0.059200
     37 H11          4.9690     0.5130    -2.5020 hc         1 0OQ       0.081700
     38 H12          4.8740    -1.9190    -1.8870 h1         1 0OQ       0.059700
     39 H13          4.9170    -1.6070    -3.6880 h1         1 0OQ       0.059700
     40 H14          5.2520    -4.3830    -2.7970 ha         1 0OQ       0.157000
     41 H15          6.9040    -5.4160    -1.2290 ha         1 0OQ       0.157500
     42 H16          4.1950    -4.7340     2.0790 ha         1 0OQ       0.157500
     43 H17          2.5270    -3.7250     0.5050 ha         1 0OQ       0.157000
@<TRIPOS>BOND
     1     1     2 2   
     2     2     3 1   
     3     2     7 1   
     4     3     4 2   
     5     3    27 1   
     6     4     5 1   
     7     4    28 1   
     8     5     6 2   
     9     5    29 1   
    10     6     7 1   
    11     6    12 1   
    12     7     8 1   
    13     8     9 1   
    14     8    30 1   
    15     8    31 1   
    16     9    10 1   
    17     9    11 1   
    18     9    32 1   
    19    10    14 1   
    20    10    33 1   
    21    10    34 1   
    22    11    12 1   
    23    11    35 1   
    24    11    36 1   
    25    12    13 1   
    26    12    37 1   
    27    13    14 1   
    28    13    38 1   
    29    13    39 1   
    30    14    15 1   
    31    15    16 2   
    32    15    17 1   
    33    17    18 ar  
    34    17    26 ar  
    35    18    19 ar  
    36    18    40 1   
    37    19    20 ar  
    38    19    41 1   
    39    20    21 1   
    40    20    25 ar  
    41    21    22 1   
    42    21    23 1   
    43    21    24 1   
    44    25    26 ar  
    45    25    42 1   
    46    26    43 1   
@<TRIPOS>SUBSTRUCTURE
     1 0OQ         1 TEMP              0 ****  ****    0 ROOT
