@<TRIPOS>MOLECULE
molecule
   43    46     1     0     0
SMALL
bcc


@<TRIPOS>ATOM
      1 OAB          0.0000     0.0000     0.0000 o          1 0OQ      -0.663500
      2 CAU          1.2200     0.0000     0.0000 c          1 0OQ       0.682700
      3 CAL          1.9150     0.0000     1.2170 cc         1 0OQ      -0.273200
      4 CAF          3.2770    -0.0800     1.2040 cd         1 0OQ      -0.035000
      5 CAG          3.9370    -0.1830    -0.0260 cd         1 0OQ      -0.250000
      6 CAT          3.2340    -0.1680    -1.1900 cc         1 0OQ       0.072400
      7 NAY          1.8920    -0.0050    -1.1780 n          1 0OQ      -0.304000
      8 CAP          1.1070     0.2390    -2.3890 c3         1 0OQ       0.098000
      9 CAV          1.8280    -0.2140    -3.6470 c3         1 0OQ      -0.104700
     10 CAN          1.7840    -1.7260    -3.8160 c3         1 0OQ       0.094000
     11 CAM          3.2700     0.2950    -3.6310 c3         1 0OQ      -0.078400
     12 CAW          4.0070    -0.3650    -2.4720 c3         1 0OQ      -0.052500
     13 CAO          4.0670    -1.8750    -2.7560 c3         1 0OQ       0.115000
     14 NAX          2.6810    -2.3720    -2.8500 n          1 0OQ      -0.487800
     15 CAQ          2.2440    -3.3830    -2.0750 c          1 0OQ       0.678700
     16 OAA          3.0160    -3.9560    -1.3290 o          1 0OQ      -0.591100
     17 CAR          0.8270    -3.8000    -2.1310 ca         1 0OQ      -0.112600
     18 CAH          0.2160    -4.0440    -3.3630 ca         1 0OQ      -0.098500
     19 CAJ         -1.1070    -4.4320    -3.4080 ca         1 0OQ      -0.086000
     20 CAS         -1.8280    -4.5800    -2.2370 ca         1 0OQ      -0.164300
     21 CAZ         -3.2730    -5.0050    -2.2950 c3         1 0OQ       0.672200
     22 FAD         -3.8470    -4.5480    -3.4870 f          1 0OQ      -0.221633
     23 FAE         -3.3510    -6.4000    -2.2450 f          1 0OQ      -0.221633
     24 FAC         -3.9630    -4.4590    -1.2070 f          1 0OQ      -0.221633
     25 CAK         -1.2290    -4.3400    -1.0130 ca         1 0OQ      -0.086000
     26 CAI          0.0950    -3.9560    -0.9540 ca         1 0OQ      -0.098500
     27 H1           1.3790     0.0800     2.1550 ha         1 0OQ       0.164000
     28 H2           3.8380    -0.0820     2.1310 ha         1 0OQ       0.137000
     29 H3           5.0180    -0.2470    -0.0520 ha         1 0OQ       0.144000
     30 H4           0.9030     1.3000    -2.4660 h1         1 0OQ       0.074200
     31 H5           0.1690    -0.2990    -2.3120 h1         1 0OQ       0.074200
     32 H6           1.3260     0.2310    -4.4970 hc         1 0OQ       0.069700
     33 H7           0.7720    -2.0750    -3.6520 h1         1 0OQ       0.061700
     34 H8           2.0980    -1.9820    -4.8210 h1         1 0OQ       0.061700
     35 H9           3.7570     0.0400    -4.5650 hc         1 0OQ       0.056200
     36 H10          3.2750     1.3710    -3.5000 hc         1 0OQ       0.056200
     37 H11          5.0070     0.0430    -2.3780 hc         1 0OQ       0.083700
     38 H12          4.5830    -2.0510    -3.6930 h1         1 0OQ       0.072700
     39 H13          4.5830    -2.3790    -1.9470 h1         1 0OQ       0.072700
     40 H14          0.7800    -3.9290    -4.2810 ha         1 0OQ       0.151500
     41 H15         -1.5820    -4.6220    -4.3630 ha         1 0OQ       0.152500
     42 H16         -1.7990    -4.4600    -0.1000 ha         1 0OQ       0.152500
     43 H17          0.5630    -3.7690     0.0050 ha         1 0OQ       0.151500
@<TRIPOS>BOND
     1    22    21 1
     2    16    15 2
     3     1     2 2
     4    24    21 1
     5    21    20 1
     6    21    23 1
     7    25    26 ar
     8    25    20 ar
     9    26    17 ar
    10    20    19 ar
    11    19    18 ar
    12    18    17 ar
    13    15    17 1
    14    15    14 1
    15     2     3 1
    16     2     7 1
    17     3     4 2
    18     8     7 1
    19     8     9 1
    20    10    14 1
    21    10     9 1
    22    14    13 1
    23     7     6 1
    24     4     5 1
    25     9    11 1
    26     6     5 2
    27     6    12 1
    28    13    12 1
    29    12    11 1
    30     3    27 1
    31     4    28 1
    32     5    29 1
    33     8    30 1
    34     8    31 1
    35     9    32 1
    36    10    33 1
    37    10    34 1
    38    11    35 1
    39    11    36 1
    40    12    37 1
    41    13    38 1
    42    13    39 1
    43    18    40 1
    44    19    41 1
    45    25    42 1
    46    26    43 1
@<TRIPOS>SUBSTRUCTURE
     1 0OQ         1 TEMP              0 ****  ****    0 ROOT
