@<TRIPOS>MOLECULE
molecule
   41    40     1     0     0
SMALL
bcc


@<TRIPOS>ATOM
      1 O19          0.0000     0.0000     0.0000 o          1 0OR      -0.685500
      2 P20          1.6090     0.0000     0.0000 p5         1 0OR       1.306900
      3 O21          2.1460     0.0000     1.5180 o          1 0OR      -0.685500
      4 O22          2.1020     1.2080    -0.6980 o          1 0OR      -0.685500
      5 O23          2.1470    -1.3150    -0.7580 os         1 0OR      -0.714800
      6 P24          2.3310    -1.7160    -2.3060 p5         1 0OR       1.433800
      7 O25          3.6870    -1.0590    -2.8740 o          1 0OR      -0.844000
      8 O26          1.1750    -1.2160    -3.0860 o          1 0OR      -0.844000
      9 O27          2.4150    -3.3190    -2.4390 os         1 0OR      -0.613200
     10 C28          2.4730    -3.9930    -3.6970 c3         1 0OR       0.240400
     11 C29          2.5450    -5.5030    -3.4630 c3         1 0OR      -0.067000
     12 C30          3.7960    -5.8340    -2.6480 c3         1 0OR      -0.071600
     13 C31          1.3010    -5.9610    -2.6980 c3         1 0OR      -0.071600
     14 C32          2.6080    -6.2250    -4.8110 c3         1 0OR       0.087100
     15 O33          1.3820    -6.0260    -5.5170 oh         1 0OR      -0.555800
     16 C34          3.7510    -5.6740    -5.6240 c          1 0OR       0.637100
     17 O35          3.5270    -5.0310    -6.6270 o          1 0OR      -0.583100
     18 N36          5.0230    -5.8960    -5.2350 ns         1 0OR      -0.600900
     19 C37          6.1310    -5.2800    -5.9690 c3         1 0OR       0.135000
     20 C38          7.4580    -5.6890    -5.3270 c3         1 0OR      -0.104400
     21 C39          8.5980    -5.0560    -6.0810 c          1 0OR       0.162100
     22 O40          8.3710    -4.3460    -7.0390 o          1 0OR      -0.608100
     23 N41          9.8700    -5.2780    -5.6930 nz         1 0OR      -0.585400
     24 H4           3.3530    -3.6700    -4.2400 h1         1 0OR       0.043200
     25 H5           1.5860    -3.7590    -4.2740 h1         1 0OR       0.043200
     26 H6           3.5780    -5.7280    -1.5920 hc         1 0OR       0.032700
     27 H7           4.1020    -6.8530    -2.8530 hc         1 0OR       0.032700
     28 H8           4.5960    -5.1560    -2.9210 hc         1 0OR       0.032700
     29 H9           1.3630    -5.6190    -1.6710 hc         1 0OR       0.032700
     30 H10          1.2440    -7.0420    -2.7150 hc         1 0OR       0.032700
     31 H11          0.4170    -5.5440    -3.1640 hc         1 0OR       0.032700
     32 H12          2.7610    -7.2850    -4.6460 h1         1 0OR       0.013700
     33 H13          1.2150    -6.7680    -6.0730 ho         1 0OR       0.381000
     34 H14          5.2130    -6.5320    -4.4860 hn         1 0OR       0.304500
     35 H15          6.1110    -5.6120    -7.0000 h1         1 0OR       0.073700
     36 H16          6.0310    -4.2010    -5.9360 h1         1 0OR       0.073700
     37 H17          7.4780    -5.3570    -4.2960 hc         1 0OR       0.029700
     38 H18          7.5580    -6.7680    -5.3610 hc         1 0OR       0.029700
     39 H19         10.0010    -4.9280    -4.7640 hn         1 0OR       0.376467
     40 H20         10.0570    -6.2610    -5.7090 hn         1 0OR       0.376467
     41 H413        10.4960    -4.8090    -6.3170 hn         1 0OR       0.376467
@<TRIPOS>BOND
     1    22    21 2
     2    21    23 1
     3    21    20 1
     4    20    19 1
     5    19    18 1
     6    17    16 2
     7    18    16 1
     8    16    14 1
     9    13    11 1
    10    14    11 1
    11    14    15 1
    12    11    12 1
    13    11    10 1
    14     3     2 1
    15     5     2 1
    16     5     6 1
    17     9    10 1
    18     9     6 1
    19     2     1 1
    20     2     4 1
    21     6     7 1
    22     6     8 1
    23    10    24 1
    24    10    25 1
    25    12    26 1
    26    12    27 1
    27    12    28 1
    28    13    29 1
    29    13    30 1
    30    13    31 1
    31    14    32 1
    32    15    33 1
    33    18    34 1
    34    19    35 1
    35    19    36 1
    36    20    37 1
    37    20    38 1
    38    23    39 1
    39    23    40 1
    40    41    23 1
@<TRIPOS>SUBSTRUCTURE
     1 0OR         1 TEMP              0 ****  ****    0 ROOT
