@<TRIPOS>MOLECULE
molecule
   76    79     1     0     0
SMALL
bcc


@<TRIPOS>ATOM
      1 CBM          0.0000     0.0000     0.0000 ca         1 0OS       0.117100
      2 CAQ          1.3850     0.0000     0.0000 ca         1 0OS      -0.185000
      3 CBL         -0.6930    -0.0010     1.2070 ca         1 0OS       0.102100
      4 CAN          0.0060    -0.0070     2.4030 ca         1 0OS      -0.189000
      5 CAM          1.3890    -0.0120     2.3970 ca         1 0OS      -0.127000
      6 CBI          2.0770     0.0000     1.1970 ca         1 0OS      -0.071300
      7 CAV          3.5840     0.0010     1.1940 c3         1 0OS      -0.035100
      8 CAY          4.0930     1.4430     1.1950 c3         1 0OS      -0.066400
      9 CBO          5.6210     1.4440     1.2760 c3         1 0OS       0.209400
     10 CBK          6.1300     2.8580     1.1620 ca         1 0OS      -0.089300
     11 CAP          6.5240     3.3530    -0.0660 ca         1 0OS      -0.157000
     12 CAL          6.1950     3.6610     2.2850 ca         1 0OS      -0.184000
     13 CAJ          6.6610     4.9590     2.1840 ca         1 0OS      -0.100000
     14 CAK          7.0620     5.4560     0.9590 ca         1 0OS      -0.226000
     15 CBJ          6.9910     4.6550    -0.1710 ca         1 0OS       0.167100
     16 OBD          6.0390     0.8810     2.5480 os         1 0OS      -0.407900
     17 C            7.2460     0.2970     2.5890 c          1 0OS       0.640100
     18 O            7.9130     0.2150     1.5840 o          1 0OS      -0.546000
     19 CA           7.7720    -0.2570     3.8890 c3         1 0OS       0.202500
     20 CB           9.1760     0.2970     4.1510 c3         1 0OS      -0.086400
     21 CAT          9.7600    -0.3750     5.3970 c3         1 0OS      -0.076400
     22 CAU          9.8700    -1.8840     5.1610 c3         1 0OS      -0.102400
     23 CAZ          8.4730    -2.4610     4.9090 c3         1 0OS       0.242800
     24 N            7.8490    -1.7210     3.8040 n3         1 0OS      -0.806500
     25 S1           7.2410    -2.5240     2.4890 sy         1 0OS       1.431200
     26 OAE          6.7740    -3.7780     2.9650 o          1 0OS      -0.627300
     27 OAF          6.4140    -1.5960     1.8000 o          1 0OS      -0.627300
     28 CBN          8.5980    -2.8720     1.4190 ca         1 0OS      -0.291500
     29 CAR          9.3010    -4.0540     1.5580 ca         1 0OS      -0.005500
     30 CBG         10.3660    -4.3270     0.7180 ca         1 0OS      -0.002600
     31 Cl2         11.2500    -5.8110     0.8930 cl         1 0OS      -0.084900
     32 CAO         10.7270    -3.4190    -0.2600 ca         1 0OS      -0.079000
     33 CBH         10.0220    -2.2360    -0.3990 ca         1 0OS      -0.002600
     34 Cl1         10.4730    -1.0950    -1.6270 cl         1 0OS      -0.084900
     35 CAS          8.9530    -1.9660     0.4380 ca         1 0OS      -0.005500
     36 H2           1.9270     0.0050    -0.9380 ha         1 0OS       0.144000
     37 H5           1.9340    -0.0140     3.3330 ha         1 0OS       0.133000
     38 H6           3.9460    -0.5110     2.0780 hc         1 0OS       0.059700
     39 H7           3.9440    -0.5090     0.3090 hc         1 0OS       0.059700
     40 H8           3.7790     1.9380     0.2840 hc         1 0OS       0.060200
     41 H9           3.6860     1.9690     2.0500 hc         1 0OS       0.060200
     42 H10          6.0260     0.8480     0.4670 h1         1 0OS       0.085700
     43 H11          6.4680     2.7250    -0.9470 ha         1 0OS       0.145000
     44 H12          5.8810     3.2730     3.2460 ha         1 0OS       0.120000
     45 H13          6.7140     5.5860     3.0660 ha         1 0OS       0.115000
     46 H14          7.4270     6.4730     0.8800 ha         1 0OS       0.145000
     47 H16          7.1140     0.0250     4.7020 h1         1 0OS       0.073700
     48 H17          9.1170     1.3660     4.3130 hc         1 0OS       0.069700
     49 H18          9.8110     0.0890     3.2980 hc         1 0OS       0.069700
     50 H19          9.1100    -0.1900     6.2440 hc         1 0OS       0.045200
     51 H20         10.7440     0.0300     5.5960 hc         1 0OS       0.045200
     52 H21         10.4980    -2.0690     4.2980 hc         1 0OS       0.049700
     53 H22         10.3020    -2.3540     6.0360 hc         1 0OS       0.049700
     54 H23          8.5560    -3.5080     4.6440 h1         1 0OS       0.055700
     55 H24          7.8700    -2.3540     5.8030 h1         1 0OS       0.055700
     56 H27          8.9830    -4.7910     2.2860 ha         1 0OS       0.172500
     57 H28         11.5300    -3.6550    -0.9490 ha         1 0OS       0.156000
     58 H29          8.2570    -1.6470    -0.3290 ha         1 0OS       0.172500
     59 O1           7.3850     5.1410    -1.3770 os         1 0OS      -0.285900
     60 C2           7.8620     6.4890    -1.4080 c3         1 0OS       0.018400
     61 H26          7.0810     7.1570    -1.0650 h1         1 0OS       0.026700
     62 H30          8.7260     6.5810    -0.7620 h1         1 0OS       0.026700
     63 C3           8.2490     6.8520    -2.8190 c          1 0OS       0.895600
     64 O2           8.7280     8.0760    -3.0900 o          1 0OS      -0.827300
     65 O3           8.1300     6.0390    -3.7050 o          1 0OS      -0.827300
     66 O4          -2.0530     0.0050     1.2120 os         1 0OS      -0.317900
     67 C4          -2.6960     0.0040     2.4880 c3         1 0OS       0.129700
     68 H3          -2.4050    -0.8830     3.0390 h1         1 0OS       0.036033
     69 H4          -3.7700     0.0070     2.3510 h1         1 0OS       0.036033
     70 H15         -2.4000     0.8860     3.0430 h1         1 0OS       0.036033
     71 O5          -0.6820     0.0060    -1.1770 os         1 0OS      -0.319900
     72 C5           0.0950     0.0060    -2.3760 c3         1 0OS       0.126700
     73 H1          -0.5310    -0.0110     3.3440 ha         1 0OS       0.133000
     74 H25          0.7110     0.8960    -2.4080 h1         1 0OS       0.040700
     75 H31          0.7280    -0.8730    -2.3960 h1         1 0OS       0.040700
     76 H32         -0.5660    -0.0070    -3.2340 h1         1 0OS       0.040700
@<TRIPOS>BOND
     1    14    13 ar  
     2    14    15 ar  
     3    13    12 ar  
     4    31    30 1   
     5    32    30 ar  
     6    32    33 ar  
     7    15    11 ar  
     8    12    10 ar  
     9    34    33 1   
    10    30    29 ar  
    11    33    35 ar  
    12    11    10 ar  
    13    10     9 1   
    14    29    28 ar  
    15    35    28 ar  
    16     7     6 1   
    17     7     8 1   
    18     2     6 ar  
    19     2     1 ar  
    20     9     8 1   
    21     9    16 1   
    22     6     5 ar  
    23     1     3 ar  
    24    16    17 1   
    25     5     4 ar  
    26     3     4 ar  
    27    25    26 2   
    28    25    24 1   
    29    25    27 2   
    30    17    18 2   
    31    17    19 1   
    32    24    23 1   
    33    24    19 1   
    34    23    22 1   
    35    19    20 1   
    36    22    21 1   
    37    20    21 1   
    38    25    28 1   
    39     2    36 1   
    40     5    37 1   
    41     7    38 1   
    42     7    39 1   
    43     8    40 1   
    44     8    41 1   
    45     9    42 1   
    46    11    43 1   
    47    12    44 1   
    48    13    45 1   
    49    14    46 1   
    50    19    47 1   
    51    20    48 1   
    52    20    49 1   
    53    21    50 1   
    54    21    51 1   
    55    22    52 1   
    56    22    53 1   
    57    23    54 1   
    58    23    55 1   
    59    29    56 1   
    60    32    57 1   
    61    35    58 1   
    62    15    59 1   
    63    59    60 1   
    64    60    61 1   
    65    60    62 1   
    66    60    63 1   
    67    63    64 1   
    68    63    65 1   
    69     3    66 1   
    70    66    67 1   
    71    67    68 1   
    72    67    69 1   
    73    67    70 1   
    74     1    71 1   
    75    71    72 1   
    76     4    73 1   
    77    72    74 1   
    78    72    75 1   
    79    72    76 1   
@<TRIPOS>SUBSTRUCTURE
     1 0OS         1 TEMP              0 ****  ****    0 ROOT
