@<TRIPOS>MOLECULE
0OT
   51    53     1     0     0
SMALL
bcc


@<TRIPOS>ATOM
      1 CAA          0.0000     0.0000     0.0000 c3         1 0OT       0.000900
      2 CAL          1.5300     0.0000     0.0000 c3         1 0OT       0.209400
      3 OAT          2.0060     0.0000     1.3470 os         1 0OT      -0.317900
      4 CAY          3.3550    -0.0000     1.5240 ca         1 0OT       0.175100
      5 CAV          4.0450    -1.2020     1.6090 ca         1 0OT      -0.000900
      6 Br2          3.1110    -2.8400     1.4780 br         1 0OT      -0.094100
      7 CAI          5.4150    -1.1990     1.7890 ca         1 0OT      -0.050000
      8 CAU          6.0980     0.0010     1.8850 ca         1 0OT       0.020100
      9 Br1          7.9730     0.0020     2.1310 br         1 0OT      -0.115100
     10 CAJ          5.4120     1.1980     1.8000 ca         1 0OT      -0.060000
     11 CAX          4.0430     1.2010     1.6150 ca         1 0OT      -0.120300
     12 CAP          3.2980     2.5070     1.5170 c3         1 0OT       0.208100
     13 NAQ          2.6700     2.8100     2.8110 n7         1 0OT      -0.569200
     14 CAN          1.9330     4.0800     2.7520 c3         1 0OT       0.147800
     15 CAM          1.2950     4.3610     4.1150 c3         1 0OT      -0.035400
     16 CAO          0.5270     5.6830     4.0540 c3         1 0OT       0.151800
     17 NAR         -0.0840     5.9530     5.3580 nu         1 0OT      -0.423000
     18 CAW         -0.8280     7.0930     5.5450 cc         1 0OT       0.119000
     19 CAK         -1.3920     7.3250     6.7770 cd         1 0OT      -0.435200
     20 CAZ         -2.1560     8.4830     6.9920 c          1 0OT       0.657900
     21 OAB         -2.6650     8.7080     8.0800 o          1 0OT      -0.627100
     22 CBB         -2.3270     9.4200     5.8660 ca         1 0OT      -0.192600
     23 CAH         -3.0770    10.5870     6.0050 ca         1 0OT      -0.003000
     24 CAF         -3.2190    11.4370     4.9290 ca         1 0OT      -0.151000
     25 CAE         -2.6210    11.1370     3.7140 ca         1 0OT      -0.045000
     26 CAG         -1.8780     9.9860     3.5620 ca         1 0OT      -0.172000
     27 CBA         -1.7220     9.1160     4.6350 ca         1 0OT       0.018600
     28 NAS         -0.9800     7.9580     4.5060 na         1 0OT      -0.135400
     29 H1          -0.3610    -0.6590     0.7800 hc         1 0OT       0.011700
     30 H2          -0.3610    -0.3460    -0.9610 hc         1 0OT       0.011700
     31 H3          -0.3610     1.0050     0.1800 hc         1 0OT       0.011700
     32 H4           1.8910    -0.8850    -0.5110 h1         1 0OT      -0.004800
     33 H5           1.8910     0.8840    -0.5110 h1         1 0OT      -0.004800
     34 H6           5.9540    -2.1360     1.8560 ha         1 0OT       0.131000
     35 H7           5.9490     2.1360     1.8730 ha         1 0OT       0.119000
     36 H8           3.9890     3.2990     1.2570 h1         1 0OT       0.014200
     37 H9           2.5330     2.4300     0.7540 h1         1 0OT       0.014200
     38 H10          3.3750     2.8660     3.5190 hn         1 0OT       0.255800
     39 H12          2.6160     4.8820     2.5000 h1         1 0OT       0.007200
     40 H13          1.1590     4.0140     1.9980 h1         1 0OT       0.007200
     41 H14          0.6130     3.5590     4.3670 hc         1 0OT       0.030200
     42 H15          2.0690     4.4280     4.8690 hc         1 0OT       0.030200
     43 H16         -0.2470     5.6170     3.2990 h1         1 0OT       0.012200
     44 H17          1.2090     6.4860     3.8010 h1         1 0OT       0.012200
     45 H18          0.0560     5.3170     6.1180 hn         1 0OT       0.318800
     46 H19         -1.2810     6.5950     7.5700 ha         1 0OT       0.144000
     47 H21         -3.5450    10.8240     6.9520 ha         1 0OT       0.126000
     48 H22         -3.8000    12.3460     5.0340 ha         1 0OT       0.107000
     49 H23         -2.7400    11.8130     2.8760 ha         1 0OT       0.099000
     50 H24         -1.4150     9.7610     2.6090 ha         1 0OT       0.105000
     51 H11         -0.5450     7.7510     3.6290 hn         1 0OT       0.279800
@<TRIPOS>BOND
     1     1     2 1   
     2     1    29 1   
     3     1    30 1   
     4     1    31 1   
     5     2     3 1   
     6     2    32 1   
     7     2    33 1   
     8     3     4 1   
     9     4     5 ar  
    10     4    11 ar  
    11     5     6 1   
    12     5     7 ar  
    13     7     8 ar  
    14     7    34 1   
    15     8     9 1   
    16     8    10 ar  
    17    10    11 ar  
    18    10    35 1   
    19    11    12 1   
    20    12    13 1   
    21    12    36 1   
    22    12    37 1   
    23    13    14 1   
    24    13    38 1   
    25    14    15 1   
    26    14    39 1   
    27    14    40 1   
    28    15    16 1   
    29    15    41 1   
    30    15    42 1   
    31    16    17 1   
    32    16    43 1   
    33    16    44 1   
    34    17    18 1   
    35    17    45 1   
    36    18    19 2   
    37    18    28 1   
    38    19    20 1   
    39    19    46 1   
    40    20    21 2   
    41    20    22 1   
    42    22    23 ar  
    43    22    27 ar  
    44    23    24 ar  
    45    23    47 1   
    46    24    25 ar  
    47    24    48 1   
    48    25    26 ar  
    49    25    49 1   
    50    26    27 ar  
    51    26    50 1   
    52    27    28 1   
    53    28    51 1   
@<TRIPOS>SUBSTRUCTURE
     1 0OT         1 TEMP              0 ****  ****    0 ROOT
