@<TRIPOS>MOLECULE
0OT
   53    55     1     0     0
SMALL
bcc


@<TRIPOS>ATOM
      1 CAA          0.1060    -1.0630     1.2440 c3         1 0OT      -0.135100
      2 CAL          0.4880     0.1010     0.3680 c3         1 0OT       0.127400
      3 OAT          1.3070     1.0460     1.1010 os         1 0OT      -0.430900
      4 CAY          2.6730     0.7960     1.0880 ca         1 0OT       0.129100
      5 CAV          3.4620     1.0280    -0.0510 ca         1 0OT      -0.061900
      6 Br2          2.7600     1.6300    -1.6770 br         1 0OT      -0.003100
      7 CAI          4.8450     0.8190     0.0270 ca         1 0OT      -0.025000
      8 CAU          5.4470     0.4270     1.2270 ca         1 0OT      -0.037900
      9 Br1          7.2890     0.1530     1.3080 br         1 0OT       0.019900
     10 CAJ          4.6610     0.2410     2.3680 ca         1 0OT      -0.053000
     11 CAX          3.2760     0.4200     2.3070 ca         1 0OT      -0.198300
     12 CAP          2.4650     0.1210     3.5220 c3         1 0OT       0.181100
     13 NAQ          1.5130     1.2250     3.8930 ny         1 0OT      -0.773000
     14 CAN          2.1990     2.5020     4.2440 c3         1 0OT       0.106800
     15 CAM          1.3920     3.7550     3.9140 c3         1 0OT      -0.136400
     16 CAO          1.6380     4.1890     2.4720 c3         1 0OT       0.087800
     17 NAR          0.8880     5.4270     2.0950 ny         1 0OT      -0.651800
     18 CAW          1.2040     5.8220     0.6860 cc         1 0OT       0.167000
     19 CAK          0.4530     5.2880    -0.3150 cd         1 0OT      -0.223200
     20 CAZ          0.7440     5.6220    -1.7310 c          1 0OT       0.583900
     21 OAB          0.0530     5.1330    -2.6280 o          1 0OT      -0.473100
     22 CBB          1.8810     6.5200    -1.9390 ca         1 0OT      -0.194600
     23 CAH          2.2310     6.9060    -3.2430 ca         1 0OT      -0.036000
     24 CAF          3.2960     7.7720    -3.4600 ca         1 0OT      -0.124000
     25 CAE          4.0250     8.2670    -2.3760 ca         1 0OT      -0.050000
     26 CAG          3.7010     7.9020    -1.0730 ca         1 0OT      -0.158000
     27 CBA          2.6270     7.0160    -0.8430 ca         1 0OT       0.133600
     28 NAS          2.3440     6.6130     0.4890 na         1 0OT      -0.593400
     29 H1           0.9860    -1.7200     1.4500 hc         1 0OT       0.057033
     30 H2          -0.6700    -1.6760     0.7190 hc         1 0OT       0.057033
     31 H3          -0.3190    -0.7120     2.2150 hc         1 0OT       0.057033
     32 H4           1.0170    -0.2440    -0.5570 h1         1 0OT       0.088200
     33 H5          -0.4060     0.7210     0.0860 h1         1 0OT       0.088200
     34 H6           5.4700     0.9670    -0.8760 ha         1 0OT       0.197000
     35 H7           5.1340    -0.0690     3.3170 ha         1 0OT       0.171000
     36 H8           3.1300    -0.0750     4.4130 hx         1 0OT       0.122200
     37 H9           1.8240    -0.7940     3.3290 hx         1 0OT       0.122200
     38 H10          0.9460     0.9120     4.6900 hn         1 0OT       0.463300
     39 H12          2.4160     2.4830     5.3540 hx         1 0OT       0.127200
     40 H13          3.1900     2.5280     3.6990 hx         1 0OT       0.127200
     41 H14          0.2960     3.5990     4.1070 hc         1 0OT       0.098200
     42 H15          1.7380     4.5600     4.6240 hc         1 0OT       0.098200
     43 H16          2.7380     4.3990     2.3130 hx         1 0OT       0.130700
     44 H17          1.3340     3.3710     1.7490 hx         1 0OT       0.130700
     45 H18          1.1210     6.1860     2.7480 hn         1 0OT       0.464300
     46 H19         -0.3820     4.5880    -0.1530 ha         1 0OT       0.177000
     47 H21          1.6390     6.5110    -4.0890 ha         1 0OT       0.181000
     48 H22          3.5620     8.0730    -4.4870 ha         1 0OT       0.175000
     49 H23          4.8670     8.9590    -2.5500 ha         1 0OT       0.170000
     50 H24          4.2890     8.3080    -0.2340 ha         1 0OT       0.154000
     51 H11          2.5490     7.3120     1.1770 hn         1 0OT       0.439800
     52 HAQ2         0.8840     1.3760     3.0860 hn         1 0OT       0.463300
     53 HAR2        -0.1250     5.2570     2.1500 hn         1 0OT       0.464300
@<TRIPOS>BOND
     1     1     2 1   
     2     1    29 1   
     3     1    30 1   
     4     1    31 1   
     5     2     3 1   
     6     2    32 1   
     7     2    33 1   
     8     3     4 1   
     9     4     5 ar  
    10     4    11 ar  
    11     5     6 1   
    12     5     7 ar  
    13     7     8 ar  
    14     7    34 1   
    15     8     9 1   
    16     8    10 ar  
    17    10    11 ar  
    18    10    35 1   
    19    11    12 1   
    20    12    13 1   
    21    12    36 1   
    22    12    37 1   
    23    13    14 1   
    24    13    38 1   
    25    13    52 1   
    26    14    15 1   
    27    14    39 1   
    28    14    40 1   
    29    15    16 1   
    30    15    41 1   
    31    15    42 1   
    32    16    17 1   
    33    16    43 1   
    34    16    44 1   
    35    17    18 1   
    36    17    45 1   
    37    17    53 1   
    38    18    19 2   
    39    18    28 1   
    40    19    20 1   
    41    19    46 1   
    42    20    21 2   
    43    20    22 1   
    44    22    23 ar  
    45    22    27 ar  
    46    23    24 ar  
    47    23    47 1   
    48    24    25 ar  
    49    24    48 1   
    50    25    26 ar  
    51    25    49 1   
    52    26    27 ar  
    53    26    50 1   
    54    27    28 1   
    55    28    51 1   
@<TRIPOS>SUBSTRUCTURE
     1 0OT         1 TEMP              0 ****  ****    0 ROOT
