@<TRIPOS>MOLECULE
molecule
   44    46     1     0     0
SMALL
bcc


@<TRIPOS>ATOM
      1 CAI          0.0000     0.0000     0.0000 ca         1 0OU      -0.109000
      2 CAS          1.3840     0.0000     0.0000 ca         1 0OU       0.035400
      3 Cl1          2.2520     0.0000    -1.5030 cl         1 0OU      -0.095400
      4 CAH          2.0750     0.0000     1.1990 ca         1 0OU      -0.114000
      5 CAT          1.3830     0.0000     2.3960 ca         1 0OU       0.035400
      6 Cl2          2.2500    -0.0010     3.9010 cl         1 0OU      -0.095400
      7 CAJ         -0.0010     0.0000     2.3950 ca         1 0OU      -0.109000
      8 CAU         -0.6910     0.0060     1.1970 ca         1 0OU      -0.071300
      9 CAO         -2.1990     0.0070     1.1960 c3         1 0OU       0.206100
     10 NAP         -2.6890    -1.3780     1.2020 n7         1 0OU      -0.812200
     11 CAM         -4.1570    -1.4160     1.2020 c3         1 0OU       0.158800
     12 CAL         -4.6290    -2.8710     1.2070 c3         1 0OU      -0.096400
     13 CAN         -6.1600    -2.9110     1.2070 c3         1 0OU       0.216800
     14 NAQ         -6.6120    -4.3040     1.2120 nu         1 0OU      -0.825000
     15 CAV         -7.9560    -4.5900     1.2130 cc         1 0OU       0.421000
     16 CAK         -8.3570    -5.9050     1.2190 cd         1 0OU      -0.438200
     17 CAW         -9.7250    -6.2200     1.2180 c          1 0OU       0.603900
     18 OAA        -10.1010    -7.3820     1.2240 o          1 0OU      -0.588100
     19 CAY        -10.6940    -5.1080     1.2140 ca         1 0OU      -0.194600
     20 CAG        -12.0680    -5.3470     1.2140 ca         1 0OU      -0.038000
     21 CAE        -12.9430    -4.2840     1.2110 ca         1 0OU      -0.174000
     22 CAD        -12.4650    -2.9810     1.2050 ca         1 0OU      -0.076000
     23 CAF        -11.1110    -2.7300     1.2040 ca         1 0OU      -0.196000
     24 CAX        -10.2090    -3.7900     1.2090 ca         1 0OU       0.184600
     25 NAR         -8.8480    -3.5630     1.2140 na         1 0OU      -0.628400
     26 H1          -0.5410     0.0050    -0.9390 ha         1 0OU       0.149500
     27 H2           3.1590    -0.0000     1.2000 ha         1 0OU       0.159000
     28 H3          -0.5420     0.0020     3.3330 ha         1 0OU       0.149500
     29 H4          -2.5590     0.5150     0.3090 h1         1 0OU       0.043700
     30 H5          -2.5590     0.5220     2.0790 h1         1 0OU       0.043700
     31 H6          -2.3430    -1.8570     0.3940 hn         1 0OU       0.359800
     32 H8          -4.5320    -0.9120     2.0850 h1         1 0OU       0.034700
     33 H9          -4.5320    -0.9180     0.3150 h1         1 0OU       0.034700
     34 H10         -4.2550    -3.3690     2.0930 hc         1 0OU       0.061700
     35 H11         -4.2550    -3.3750     0.3240 hc         1 0OU       0.061700
     36 H12         -6.5340    -2.4130     0.3210 h1         1 0OU       0.039200
     37 H13         -6.5340    -2.4060     2.0900 h1         1 0OU       0.039200
     38 H14         -5.9420    -5.0470     1.2430 hn         1 0OU       0.467800
     39 H15         -7.6190    -6.6970     1.1750 ha         1 0OU       0.159000
     40 H17        -12.4450    -6.3620     1.2190 ha         1 0OU       0.160000
     41 H18        -14.0110    -4.4650     1.2120 ha         1 0OU       0.135000
     42 H19        -13.1630    -2.1530     1.2020 ha         1 0OU       0.132000
     43 H20        -10.7480    -1.7090     1.2000 ha         1 0OU       0.127000
     44 H7          -8.5090    -2.6210     1.2180 hn         1 0OU       0.445800
@<TRIPOS>BOND
     1     8     9 1
     2     8     1 ar
     3     8     7 ar
     4     9    10 1
     5     3     2 1
     6     1     2 ar
     7     2     4 ar
     8     7     5 ar
     9     5     4 ar
    10     5     6 1
    11    10    11 1
    12    11    12 1
    13    12    13 1
    14    13    14 1
    15    14    15 1
    16    15    16 2
    17    15    25 1
    18    16    17 1
    19    25    24 1
    20    17    18 2
    21    17    19 1
    22    24    19 ar
    23    24    23 ar
    24    19    20 ar
    25    23    22 ar
    26    20    21 ar
    27    22    21 ar
    28     1    26 1
    29     4    27 1
    30     7    28 1
    31     9    29 1
    32     9    30 1
    33    10    31 1
    34    11    32 1
    35    11    33 1
    36    12    34 1
    37    12    35 1
    38    13    36 1
    39    13    37 1
    40    14    38 1
    41    16    39 1
    42    20    40 1
    43    21    41 1
    44    22    42 1
    45    23    43 1
    46    25    44 1
@<TRIPOS>SUBSTRUCTURE
     1 0OU         1 TEMP              0 ****  ****    0 ROOT
