@<TRIPOS>MOLECULE
0OU
   44    46     1     0     0
SMALL
bcc


@<TRIPOS>ATOM
      1 CAI          0.0000     0.0000     0.0000 ca         1 0OU      -0.086500
      2 CAS          1.3840     0.0000     0.0000 ca         1 0OU      -0.027100
      3 Cl1          2.2520     0.0000    -1.5030 cl         1 0OU      -0.015400
      4 CAH          2.0750     0.0000     1.1990 ca         1 0OU      -0.096000
      5 CAT          1.3830     0.0000     2.3960 ca         1 0OU      -0.027100
      6 Cl2          2.2500    -0.0010     3.9010 cl         1 0OU      -0.015400
      7 CAJ         -0.0010     0.0000     2.3950 ca         1 0OU      -0.086500
      8 CAU         -0.6910     0.0060     1.1970 ca         1 0OU      -0.078300
      9 CAO         -2.1990     0.0070     1.1960 c3         1 0OU       0.204100
     10 NAP         -2.6890    -1.3780     1.2020 n7         1 0OU      -0.580200
     11 CAM         -4.1570    -1.4160     1.2020 c3         1 0OU       0.147800
     12 CAL         -4.6290    -2.8710     1.2070 c3         1 0OU      -0.034400
     13 CAN         -6.1600    -2.9110     1.2070 c3         1 0OU       0.151800
     14 NAQ         -6.6120    -4.3040     1.2120 nu         1 0OU      -0.423000
     15 CAV         -7.9560    -4.5900     1.2130 cc         1 0OU       0.118000
     16 CAK         -8.3570    -5.9050     1.2190 cd         1 0OU      -0.433200
     17 CAW         -9.7250    -6.2200     1.2180 c          1 0OU       0.657900
     18 OAA        -10.1010    -7.3820     1.2240 o          1 0OU      -0.627100
     19 CAY        -10.6940    -5.1080     1.2140 ca         1 0OU      -0.192600
     20 CAG        -12.0680    -5.3470     1.2140 ca         1 0OU      -0.003000
     21 CAE        -12.9430    -4.2840     1.2110 ca         1 0OU      -0.150000
     22 CAD        -12.4650    -2.9810     1.2050 ca         1 0OU      -0.045000
     23 CAF        -11.1110    -2.7300     1.2040 ca         1 0OU      -0.172000
     24 CAX        -10.2090    -3.7900     1.2090 ca         1 0OU       0.018600
     25 NAR         -8.8480    -3.5630     1.2140 na         1 0OU      -0.134400
     26 H1          -0.5410     0.0050    -0.9390 ha         1 0OU       0.119500
     27 H2           3.1590    -0.0000     1.2000 ha         1 0OU       0.127000
     28 H3          -0.5420     0.0020     3.3330 ha         1 0OU       0.119500
     29 H4          -2.5590     0.5150     0.3090 h1         1 0OU       0.012700
     30 H5          -2.5590     0.5220     2.0790 h1         1 0OU       0.012700
     31 H6          -2.3430    -1.8570     0.3940 hn         1 0OU       0.257800
     32 H8          -4.5320    -0.9120     2.0850 h1         1 0OU       0.008200
     33 H9          -4.5320    -0.9180     0.3150 h1         1 0OU       0.008200
     34 H10         -4.2550    -3.3690     2.0930 hc         1 0OU       0.029700
     35 H11         -4.2550    -3.3750     0.3240 hc         1 0OU       0.029700
     36 H12         -6.5340    -2.4130     0.3210 h1         1 0OU       0.012200
     37 H13         -6.5340    -2.4060     2.0900 h1         1 0OU       0.012200
     38 H14         -5.9420    -5.0470     1.2430 hn         1 0OU       0.317800
     39 H15         -7.6190    -6.6970     1.1750 ha         1 0OU       0.144000
     40 H17        -12.4450    -6.3620     1.2190 ha         1 0OU       0.126000
     41 H18        -14.0110    -4.4650     1.2120 ha         1 0OU       0.108000
     42 H19        -13.1630    -2.1530     1.2020 ha         1 0OU       0.100000
     43 H20        -10.7480    -1.7090     1.2000 ha         1 0OU       0.105000
     44 H7          -8.5090    -2.6210     1.2180 hn         1 0OU       0.278800
@<TRIPOS>BOND
     1     1     2 ar  
     2     1     8 ar  
     3     1    26 1   
     4     2     3 1   
     5     2     4 ar  
     6     4     5 ar  
     7     4    27 1   
     8     5     6 1   
     9     5     7 ar  
    10     7     8 ar  
    11     7    28 1   
    12     8     9 1   
    13     9    10 1   
    14     9    29 1   
    15     9    30 1   
    16    10    11 1   
    17    10    31 1   
    18    11    12 1   
    19    11    32 1   
    20    11    33 1   
    21    12    13 1   
    22    12    34 1   
    23    12    35 1   
    24    13    14 1   
    25    13    36 1   
    26    13    37 1   
    27    14    15 1   
    28    14    38 1   
    29    15    16 2   
    30    15    25 1   
    31    16    17 1   
    32    16    39 1   
    33    17    18 2   
    34    17    19 1   
    35    19    20 ar  
    36    19    24 ar  
    37    20    21 ar  
    38    20    40 1   
    39    21    22 ar  
    40    21    41 1   
    41    22    23 ar  
    42    22    42 1   
    43    23    24 ar  
    44    23    43 1   
    45    24    25 1   
    46    25    44 1   
@<TRIPOS>SUBSTRUCTURE
     1 0OU         1 TEMP              0 ****  ****    0 ROOT
