@<TRIPOS>MOLECULE
0OU
   46    48     1     0     0
SMALL
bcc


@<TRIPOS>ATOM
      1 CAI          0.2750    -0.4530     0.2520 ca         1 0OU      -0.114000
      2 CAS          1.5910    -0.6650     0.6800 ca         1 0OU       0.028400
      3 Cl1          2.8570    -0.5520    -0.4310 cl         1 0OU      -0.007900
      4 CAH          1.8620    -0.9760     2.0180 ca         1 0OU      -0.067000
      5 CAT          0.8050    -1.0720     2.9320 ca         1 0OU       0.028400
      6 Cl2          1.1190    -1.4490     4.5450 cl         1 0OU      -0.007900
      7 CAJ         -0.5140    -0.8650     2.5130 ca         1 0OU      -0.114000
      8 CAU         -0.7730    -0.5540     1.1730 ca         1 0OU      -0.183300
      9 CAO         -2.1800    -0.4060     0.7150 c3         1 0OU       0.180100
     10 NAP         -2.7350     0.9620     1.0480 ny         1 0OU      -0.769000
     11 CAM         -2.2160     2.0140     0.1310 c3         1 0OU       0.099800
     12 CAL         -2.6140     3.4300     0.5470 c3         1 0OU      -0.138400
     13 CAN         -2.0440     4.4050    -0.4820 c3         1 0OU       0.105800
     14 NAQ         -2.4010     5.8300    -0.2020 ny         1 0OU      -0.652800
     15 CAV         -1.9400     6.7200    -1.3150 cc         1 0OU       0.151000
     16 CAK         -2.8470     7.1040    -2.2530 cd         1 0OU      -0.207200
     17 CAW         -2.4300     7.9730    -3.3840 c          1 0OU       0.579900
     18 OAA         -3.2770     8.3990    -4.1700 o          1 0OU      -0.457100
     19 CAY         -0.9920     8.2330    -3.4700 ca         1 0OU      -0.194600
     20 CAG         -0.4850     8.9670    -4.5540 ca         1 0OU      -0.033000
     21 CAE          0.8750     9.2430    -4.6440 ca         1 0OU      -0.122000
     22 CAD          1.7450     8.7910    -3.6490 ca         1 0OU      -0.053000
     23 CAF          1.2700     8.0610    -2.5630 ca         1 0OU      -0.153000
     24 CAX         -0.1060     7.7670    -2.4700 ca         1 0OU       0.124600
     25 NAR         -0.5610     6.9780    -1.3760 na         1 0OU      -0.592400
     26 H1           0.0710    -0.2450    -0.8100 ha         1 0OU       0.154000
     27 H2           2.9020    -1.1580     2.3480 ha         1 0OU       0.197000
     28 H3          -1.3410    -0.9810     3.2320 ha         1 0OU       0.154000
     29 H4          -2.2690    -0.5540    -0.4000 hx         1 0OU       0.123200
     30 H5          -2.8460    -1.1570     1.2380 hx         1 0OU       0.123200
     31 H6          -2.4700     1.1890     2.0160 hn         1 0OU       0.456800
     32 H8          -2.6080     1.7920    -0.9050 hx         1 0OU       0.123200
     33 H9          -1.0880     1.9150     0.1100 hx         1 0OU       0.123200
     34 H10         -2.2070     3.6620     1.5690 hc         1 0OU       0.087200
     35 H11         -3.7330     3.5210     0.5920 hc         1 0OU       0.087200
     36 H12         -0.9160     4.3310    -0.5090 hx         1 0OU       0.129200
     37 H13         -2.4350     4.1570    -1.5140 hx         1 0OU       0.129200
     38 H14         -3.4230     5.9290    -0.1280 hn         1 0OU       0.464800
     39 H15         -3.9080     6.8030    -2.2540 ha         1 0OU       0.182000
     40 H17         -1.1880     9.3240    -5.3290 ha         1 0OU       0.183000
     41 H18          1.2650     9.8220    -5.4980 ha         1 0OU       0.176000
     42 H19          2.8240     9.0160    -3.7190 ha         1 0OU       0.170000
     43 H20          1.9760     7.7200    -1.7900 ha         1 0OU       0.152000
     44 H7          -0.1120     7.2110    -0.5090 hn         1 0OU       0.433800
     45 HAP2        -3.7590     0.9300     0.9900 hn         1 0OU       0.456800
     46 HAQ2        -1.9840     6.1280     0.6890 hn         1 0OU       0.464800
@<TRIPOS>BOND
     1     1     2 ar  
     2     1     8 ar  
     3     1    26 1   
     4     2     3 1   
     5     2     4 ar  
     6     4     5 ar  
     7     4    27 1   
     8     5     6 1   
     9     5     7 ar  
    10     7     8 ar  
    11     7    28 1   
    12     8     9 1   
    13     9    10 1   
    14     9    29 1   
    15     9    30 1   
    16    10    11 1   
    17    10    31 1   
    18    10    45 1   
    19    11    12 1   
    20    11    32 1   
    21    11    33 1   
    22    12    13 1   
    23    12    34 1   
    24    12    35 1   
    25    13    14 1   
    26    13    36 1   
    27    13    37 1   
    28    14    15 1   
    29    14    38 1   
    30    14    46 1   
    31    15    16 2   
    32    15    25 1   
    33    16    17 1   
    34    16    39 1   
    35    17    18 2   
    36    17    19 1   
    37    19    20 ar  
    38    19    24 ar  
    39    20    21 ar  
    40    20    40 1   
    41    21    22 ar  
    42    21    41 1   
    43    22    23 ar  
    44    22    42 1   
    45    23    24 ar  
    46    23    43 1   
    47    24    25 1   
    48    25    44 1   
@<TRIPOS>SUBSTRUCTURE
     1 0OU         1 TEMP              0 ****  ****    0 ROOT
