@<TRIPOS>MOLECULE
molecule
   42    44     1     0     0
SMALL
bcc


@<TRIPOS>ATOM
      1 C24          0.0000     0.0000     0.0000 ca         1 0OV       0.771200
      2 C22         -2.6370    -1.3740    -1.1850 c1         1 0OV       0.188700
      3 C21         -2.1400     0.0120    -1.1850 c3         1 0OV       0.250900
      4 C18          1.3270    -0.0010    -2.4660 cc         1 0OV      -0.311200
      5 C16          2.1120    -0.0010    -1.2850 c          1 0OV       0.599900
      6 C15          1.4070     0.0000     0.0000 ca         1 0OV      -0.535200
      7 C6          -0.9370     2.1690     5.3420 c3         1 0OV      -0.099400
      8 C4          -1.9910     0.0060     6.0150 c3         1 0OV      -0.078400
      9 C2          -0.6630    -0.7160     5.7760 c3         1 0OV      -0.115700
     10 C1          -0.9360    -2.1590     5.3480 c3         1 0OV      -0.097100
     11 C11          0.0390     0.0020     2.3030 ca         1 0OV       1.002300
     12 C5          -1.7180     1.4480     6.4440 c3         1 0OV      -0.065400
     13 C7           0.3910     1.4470     5.1040 c3         1 0OV      -0.101400
     14 C8           0.1180     0.0040     4.6760 c3         1 0OV       0.150100
     15 O10         -0.6480     0.0030     3.4690 os         1 0OV      -0.405100
     16 N12          1.3640     0.0020     2.3480 nb         1 0OV      -0.910000
     17 C13          2.0860     0.0000     1.2310 ca         1 0OV       0.883200
     18 N14          3.4650    -0.0010     1.2790 nv         1 0OV      -0.993500
     19 O17          3.3320    -0.0070    -1.3360 o          1 0OV      -0.585100
     20 C19         -0.0180     0.0050    -2.3800 cd         1 0OV       0.116000
     21 N20         -0.6740     0.0060    -1.1920 na         1 0OV      -0.611100
     22 N23         -3.0020    -2.4490    -1.1910 n1         1 0OV      -0.342800
     23 N25         -0.6370     0.0010     1.1670 nb         1 0OV      -0.859000
     24 H1          -2.7350     0.6920    -1.7820 h1         1 0OV       0.115200
     25 H2          -2.3070     0.2650    -0.1450 h1         1 0OV       0.115200
     26 H3           1.9160    -0.3460    -3.3070 ha         1 0OV       0.173000
     27 H4          -1.5240     2.1280     4.4330 hc         1 0OV       0.042200
     28 H5          -0.7190     3.2290     5.3780 hc         1 0OV       0.042200
     29 H6          -2.5610    -0.3020     5.1470 hc         1 0OV       0.059200
     30 H7          -2.2580    -0.4650     6.9540 hc         1 0OV       0.059200
     31 H8          -0.0820    -0.7100     6.6900 hc         1 0OV       0.058700
     32 H9           0.0500    -2.5890     5.4760 hc         1 0OV       0.051033
     33 H10         -1.5460    -2.0890     4.4550 hc         1 0OV       0.051033
     34 H11         -1.6200    -2.4720     6.1270 hc         1 0OV       0.051033
     35 H12         -1.2860     1.6610     7.4140 hc         1 0OV       0.043700
     36 H13         -2.7600     1.7390     6.4870 hc         1 0OV       0.043700
     37 H14          0.8660     1.4940     6.0760 hc         1 0OV       0.065700
     38 H15          0.7750     1.9500     4.2240 hc         1 0OV       0.065700
     39 H16          1.0600    -0.5060     4.5110 h1         1 0OV       0.076700
     40 H17          3.9190    -0.4270     2.0630 hn         1 0OV       0.439300
     41 H18          4.3280     0.2400     0.8330 hn         1 0OV       0.439300
     42 H19         -0.6570    -0.2900    -3.2040 h4         1 0OV       0.157000
@<TRIPOS>BOND
     1     4    20 2
     2     4     5 1
     3    19     5 2
     4    22     2 3
     5    20    21 1
     6     5     6 1
     7     2     3 1
     8    21     3 1
     9    21     1 1
    10     6     1 ar
    11     6    17 ar
    12     1    23 ar
    13    18    17 1
    14    17    16 ar
    15    23    11 ar
    16    16    11 ar
    17    11    15 1
    18     7    13 1
    19     7    12 1
    20    13    14 1
    21    14    15 1
    22    14     9 1
    23    12     8 1
    24     9     8 1
    25     9    10 1
    26     3    24 1
    27     3    25 1
    28     4    26 1
    29     7    27 1
    30     7    28 1
    31     8    29 1
    32     8    30 1
    33     9    31 1
    34    10    32 1
    35    10    33 1
    36    10    34 1
    37    12    35 1
    38    12    36 1
    39    13    37 1
    40    13    38 1
    41    14    39 1
    42    18    40 1
    43    18    41 1
    44    20    42 1
@<TRIPOS>SUBSTRUCTURE
     1 0OV         1 TEMP              0 ****  ****    0 ROOT
