@<TRIPOS>MOLECULE
0OV
   42    43     1     0     0
SMALL
bcc


@<TRIPOS>ATOM
      1 C24         -0.0830    -0.0140     0.0350 c2         1 0OV       0.236000
      2 C22         -2.6960    -1.4380    -1.2160 c1         1 0OV      -0.170000
      3 C21         -2.2460    -0.0490    -1.1990 c3         1 0OV       0.075000
      4 C18          1.2390     0.2160    -2.4430 c2         1 0OV      -0.273000
      5 C16          2.0740     0.1740    -1.2420 c2         1 0OV       0.331000
      6 C15          1.3510     0.0400     0.0150 c2         1 0OV      -0.369000
      7 C6          -3.7360    -1.9980     4.8000 c3         1 0OV      -0.154000
      8 C4          -4.0460     1.0670     3.2840 c1         1 0OV      -0.056000
      9 C2          -2.6360     1.0070     3.6490 c3         1 0OV      -0.213000
     10 C1          -2.2320     1.7500     4.9050 c3         1 0OV      -0.232000
     11 C11         -0.0600    -0.2550     2.3410 c2         1 0OV       0.247000
     12 C5          -4.9330    -1.0910     4.6770 c3         1 0OV      -0.236000
     13 C7          -2.4230    -1.2500     4.8790 c3         1 0OV      -0.169000
     14 C8          -2.1290    -0.4430     3.6140 c3         1 0OV       0.073000
     15 O10         -0.6790    -0.4290     3.5580 os         1 0OV      -0.182000
     16 N12          1.2970    -0.2120     2.4760 n2         1 0OV      -0.285000
     17 C13          2.0110    -0.0610     1.3050 c2         1 0OV       0.265000
     18 N14          3.3680    -0.0060     1.4140 nv         1 0OV      -0.339000
     19 O17          3.3160     0.2470    -1.3380 o          1 0OV      -0.366000
     20 C19         -0.1100     0.1660    -2.3710 c2         1 0OV       0.016000
     21 N20         -0.8060     0.1130    -1.1670 na         1 0OV      -0.197000
     22 N23         -3.0800    -2.5350    -1.2240 n1         1 0OV      -0.013000
     23 N25         -0.7980    -0.1590     1.1920 n2         1 0OV      -0.338000
     24 H1          -2.6400     0.4620    -2.1300 h1         1 0OV       0.141500
     25 H2          -2.7070     0.4630    -0.3000 h1         1 0OV       0.141500
     26 H3           1.7560     0.2910    -3.4110 ha         1 0OV       0.170000
     27 H4          -3.7150    -2.7080     3.9310 hc         1 0OV       0.085000
     28 H5          -3.8340    -2.6200     5.7310 hc         1 0OV       0.085000
     29 H6          -5.0510    -0.7350     3.6170 hc         1 0OV       0.087333
     30 H7          -4.6420     1.8210     3.8240 ha         1 0OV       0.039000
     31 H8          -2.1540     1.5400     2.7590 hc         1 0OV       0.161000
     32 H9          -1.1820     1.4930     5.1890 hc         1 0OV       0.083000
     33 H10         -2.2960     2.8520     4.7370 hc         1 0OV       0.083000
     34 H11         -2.9070     1.4900     5.7560 hc         1 0OV       0.083000
     35 H12         -5.8660    -1.6370     4.9560 hc         1 0OV       0.087333
     36 H13         -4.8330    -0.2040     5.3510 hc         1 0OV       0.087333
     37 H14         -2.4160    -0.5800     5.7770 hc         1 0OV       0.101000
     38 H15         -1.5910    -1.9930     5.0210 hc         1 0OV       0.101000
     39 H16         -2.5630    -0.9680     2.7190 h1         1 0OV       0.138000
     40 H17          3.9290     0.0870     0.5970 hn         1 0OV       0.259000
     41 H18          3.8040    -0.0900     2.3000 hn         1 0OV       0.259000
     42 H19         -0.7470     0.1900    -3.2770 h4         1 0OV       0.159000
@<TRIPOS>BOND
     1     1     6 1   
     2     1    21 1   
     3     1    23 1   
     4     2     3 1   
     5     2    22 1   
     6     3    21 1   
     7     3    24 1   
     8     3    25 1   
     9     4     5 1   
    10     4    20 1   
    11     4    26 1   
    12     5     6 1   
    13     5    19 1   
    14     6    17 1   
    15     7    12 1   
    16     7    13 1   
    17     7    27 1   
    18     7    28 1   
    19     8     9 1   
    20     8    30 1   
    21     9    10 1   
    22     9    14 1   
    23     9    31 1   
    24    10    32 1   
    25    10    33 1   
    26    10    34 1   
    27    11    15 1   
    28    11    16 1   
    29    11    23 1   
    30    12    29 1   
    31    12    35 1   
    32    12    36 1   
    33    13    14 1   
    34    13    37 1   
    35    13    38 1   
    36    14    15 1   
    37    14    39 1   
    38    16    17 1   
    39    17    18 1   
    40    18    40 1   
    41    18    41 1   
    42    20    21 1   
    43    20    42 1   
@<TRIPOS>SUBSTRUCTURE
     1 0OV         1 TEMP              0 ****  ****    0 ROOT
