@<TRIPOS>MOLECULE
0OW
   46    48     1     0     0
SMALL
bcc


@<TRIPOS>ATOM
      1 N1          -0.1540     0.2480     0.2270 nz         1 0OW      -0.736400
      2 C2           1.3230    -0.0740     0.2530 c          1 0OW       0.606700
      3 C4           2.0240    -0.0380     1.4940 ca         1 0OW      -0.568200
      4 C5           3.4770    -0.2350     1.5320 ca         1 0OW       0.818200
      5 C10          3.6460     0.4550     6.2420 c3         1 0OW       0.151100
      6 C11          2.9080    -0.7780     6.7620 c3         1 0OW      -0.092900
      7 C12          3.5840    -1.1990     8.0600 c3         1 0OW      -0.080900
      8 C13          4.6290    -0.1460     8.4030 c3         1 0OW      -0.080900
      9 C14          4.8350     0.7210     7.1720 c3         1 0OW      -0.092900
     10 O3           1.7400    -0.3250    -0.8840 o          1 0OW      -0.526100
     11 N6           4.1990    -0.5060     0.4180 nv         1 0OW      -0.910500
     12 N7           4.1840    -0.1450     2.7150 nb         1 0OW      -0.796000
     13 C8           3.4710     0.1080     3.8460 ca         1 0OW       0.988300
     14 O9           4.2610     0.2000     4.9470 os         1 0OW      -0.386100
     15 N15          2.0890     0.2670     3.9430 nb         1 0OW      -0.845000
     16 C16          1.4210     0.1870     2.7890 ca         1 0OW       0.778600
     17 O17          0.0590     0.3080     2.7770 os         1 0OW      -0.489100
     18 C18         -0.6520     0.6660     3.9820 c3         1 0OW       0.164100
     19 C20         -0.7760    -0.5180     4.9370 c3         1 0OW      -0.103400
     20 C21         -2.2520    -0.6650     5.2740 c3         1 0OW      -0.080400
     21 C22         -3.0400     0.0480     4.1860 c3         1 0OW      -0.118400
     22 C23         -2.0840     1.0360     3.5100 c3         1 0OW       0.139100
     23 O25         -2.1390     0.9490     2.0900 oh         1 0OW      -0.653800
     24 H1          -0.6780    -0.4400     0.7860 hn         1 0OW       0.471467
     25 H2          -0.3320     1.1610     0.6670 hn         1 0OW       0.471467
     26 H3           2.9780     1.3490     6.1540 h1         1 0OW       0.072700
     27 H4           2.9490    -1.6050     6.0080 hc         1 0OW       0.063700
     28 H5           1.8310    -0.5290     6.9340 hc         1 0OW       0.063700
     29 H6           4.0680    -2.2000     7.9340 hc         1 0OW       0.056450
     30 H7           2.8330    -1.2940     8.8830 hc         1 0OW       0.056450
     31 H8           5.5910    -0.6270     8.7130 hc         1 0OW       0.056450
     32 H9           4.2790     0.4820     9.2620 hc         1 0OW       0.056450
     33 H10          4.8810     1.8050     7.4360 hc         1 0OW       0.063700
     34 H11          5.7930     0.4560     6.6520 hc         1 0OW       0.063700
     35 H12          5.1880    -0.6280     0.4780 hn         1 0OW       0.476300
     36 H13          3.7650    -0.5930    -0.4720 hn         1 0OW       0.476300
     37 H14         -0.1550     1.5510     4.4580 h1         1 0OW       0.089700
     38 H15         -0.3890    -1.4460     4.4450 hc         1 0OW       0.070700
     39 H16         -0.1630    -0.3440     5.8570 hc         1 0OW       0.070700
     40 H17         -2.5420    -1.7430     5.3350 hc         1 0OW       0.066200
     41 H18         -2.4680    -0.2050     6.2730 hc         1 0OW       0.066200
     42 H19         -3.4210    -0.6870     3.4320 hc         1 0OW       0.066200
     43 H20         -3.9210     0.5860     4.6150 hc         1 0OW       0.066200
     44 H21         -2.3080     2.0950     3.8160 h1         1 0OW       0.067700
     45 H22         -3.0600     1.1090     1.8470 ho         1 0OW       0.429000
     46 H131        -0.4930     0.2470    -0.7400 hn         1 0OW       0.471467
@<TRIPOS>BOND
     1     1     2 1   
     2     1    24 1   
     3     1    25 1   
     4     1    46 1   
     5     2     3 1   
     6     2    10 2   
     7     3     4 ar  
     8     3    16 ar  
     9     4    11 1   
    10     4    12 ar  
    11     5     6 1   
    12     5     9 1   
    13     5    14 1   
    14     5    26 1   
    15     6     7 1   
    16     6    27 1   
    17     6    28 1   
    18     7     8 1   
    19     7    29 1   
    20     7    30 1   
    21     8     9 1   
    22     8    31 1   
    23     8    32 1   
    24     9    33 1   
    25     9    34 1   
    26    11    35 1   
    27    11    36 1   
    28    12    13 ar  
    29    13    14 1   
    30    13    15 ar  
    31    15    16 ar  
    32    16    17 1   
    33    17    18 1   
    34    18    19 1   
    35    18    22 1   
    36    18    37 1   
    37    19    20 1   
    38    19    38 1   
    39    19    39 1   
    40    20    21 1   
    41    20    40 1   
    42    20    41 1   
    43    21    22 1   
    44    21    42 1   
    45    21    43 1   
    46    22    23 1   
    47    22    44 1   
    48    23    45 1   
@<TRIPOS>SUBSTRUCTURE
     1 0OW         1 TEMP              0 ****  ****    0 ROOT
