@<TRIPOS>MOLECULE
molecule
   46    48     1     0     0
SMALL
bcc


@<TRIPOS>ATOM
      1 N1           0.0000     0.0000     0.0000 nz         1 0OW      -0.679400
      2 C2           1.3470     0.0000     0.0000 c          1 0OW       0.549700
      3 C4           2.0820     0.0000     1.2720 ca         1 0OW      -0.621200
      4 C5           2.4500    -1.2090     1.8980 ca         1 0OW       0.834200
      5 C10          4.4340    -1.2700     5.3370 c3         1 0OW       0.130100
      6 C11          5.8690    -1.6890     4.9290 c3         1 0OW      -0.092400
      7 C12          6.2620    -2.6880     6.0450 c3         1 0OW      -0.081400
      8 C13          5.6500    -2.0860     7.3260 c3         1 0OW      -0.081400
      9 C14          4.4880    -1.1840     6.8750 c3         1 0OW      -0.092400
     10 O3           1.9560    -0.0010    -1.0540 o          1 0OW      -0.399100
     11 N6           2.1270    -2.4220     1.3270 nv         1 0OW      -0.999500
     12 N7           3.1130    -1.1590     3.0500 nb         1 0OW      -0.880000
     13 C8           3.4280     0.0000     3.6040 ca         1 0OW       1.032300
     14 O9           4.1040     0.0030     4.7760 os         1 0OW      -0.379100
     15 N15          3.1030     1.1590     3.0500 nb         1 0OW      -0.845000
     16 C16          2.4450     1.2060     1.8990 ca         1 0OW       0.803600
     17 O17          2.1220     2.3960     1.3400 os         1 0OW      -0.419100
     18 C18          2.5270     3.5730     2.0420 c3         1 0OW       0.137100
     19 C20          1.3930     4.0660     2.9730 c3         1 0OW      -0.103400
     20 C21          1.7250     5.5690     3.1480 c3         1 0OW      -0.077400
     21 C22          2.2320     6.0100     1.7610 c3         1 0OW      -0.110400
     22 C23          2.7470     4.7390     1.0560 c3         1 0OW       0.146100
     23 O25          2.0040     4.5110    -0.1430 oh         1 0OW      -0.609800
     24 H1          -0.3340    -0.7810    -0.5300 hn         1 0OW       0.476467
     25 H2          -0.3340     0.8490    -0.4110 hn         1 0OW       0.476467
     26 H3           3.7200    -2.0230     5.0270 h1         1 0OW       0.079700
     27 H4           5.8640    -2.1780     3.9620 hc         1 0OW       0.061450
     28 H5           6.5330    -0.8330     4.9310 hc         1 0OW       0.061450
     29 H6           7.3400    -2.7500     6.1340 hc         1 0OW       0.056200
     30 H7           5.8350    -3.6640     5.8450 hc         1 0OW       0.056200
     31 H8           6.3940    -1.4980     7.8490 hc         1 0OW       0.056200
     32 H9           5.2780    -2.8780     7.9650 hc         1 0OW       0.056200
     33 H10          4.6740    -0.1610     7.1820 hc         1 0OW       0.061450
     34 H11          3.5570    -1.5410     7.2980 hc         1 0OW       0.061450
     35 H12          1.9600    -2.4810     0.3420 hn         1 0OW       0.457300
     36 H13          2.1050    -3.2490     1.8890 hn         1 0OW       0.457300
     37 H14          3.4290     3.3890     2.6130 h1         1 0OW       0.102700
     38 H15          1.4300     3.5530     3.9260 hc         1 0OW       0.059200
     39 H16          0.4270     3.9410     2.4980 hc         1 0OW       0.059200
     40 H17          2.5000     5.7000     3.8930 hc         1 0OW       0.061200
     41 H18          0.8340     6.1230     3.4180 hc         1 0OW       0.061200
     42 H19          3.0400     6.7240     1.8720 hc         1 0OW       0.066700
     43 H20          1.4200     6.4460     1.1910 hc         1 0OW       0.066700
     44 H21          3.8020     4.8410     0.8330 h1         1 0OW       0.052700
     45 H22          2.4580     4.9000    -0.8730 ho         1 0OW       0.415000
     46 H131        -0.3340    -0.0570     0.9420 hn         1 0OW       0.476467
@<TRIPOS>BOND
     1     1     2 1   
     2    20    19 1   
     3    20    21 1   
     4    23    22 1   
     5    19    18 1   
     6    10     2 2   
     7     2     3 1   
     8    21    22 1   
     9    17    18 1   
    10    17    16 1   
    11    22    18 1   
    12     3    16 ar  
    13     3     4 ar  
    14    16    15 ar  
    15    11     4 1   
    16     4    12 ar  
    17    15    13 ar  
    18    12    13 ar  
    19    13    14 1   
    20     6     7 1   
    21     6     5 1   
    22     7     8 1   
    23    14     5 1   
    24     5     9 1   
    25     8     9 1   
    26     1    24 1   
    27     1    25 1   
    28     5    26 1   
    29     6    27 1   
    30     6    28 1   
    31     7    29 1   
    32     7    30 1   
    33     8    31 1   
    34     8    32 1   
    35     9    33 1   
    36     9    34 1   
    37    11    35 1   
    38    11    36 1   
    39    18    37 1   
    40    19    38 1   
    41    19    39 1   
    42    20    40 1   
    43    20    41 1   
    44    21    42 1   
    45    21    43 1   
    46    22    44 1   
    47    23    45 1   
    48    46     1 1   
@<TRIPOS>SUBSTRUCTURE
     1 0OW         1 TEMP              0 ****  ****    0 ROOT
