@<TRIPOS>MOLECULE
molecule
   31    32     1     0     0
SMALL
bcc


@<TRIPOS>ATOM
      1 C2           0.0000     0.0000     0.0000 c          1 0OX       0.526700
      2 C4           1.4720     0.0000     0.0000 ca         1 0OX      -0.579200
      3 C5           2.1920     0.0000     1.2000 ca         1 0OX       0.556200
      4 C10          7.5210    -0.7290     1.2110 c3         1 0OX      -0.089900
      5 C11          8.3240    -0.1420     2.3900 c3         1 0OX      -0.081400
      6 C12          7.7090     1.2340     2.7000 c3         1 0OX      -0.081400
      7 C13          6.5530     1.4350     1.6990 c3         1 0OX      -0.089900
      8 N1          -0.6730    -0.1100     1.1630 nz         1 0OX      -0.677400
      9 O3          -0.6080     0.1060    -1.0470 o          1 0OX      -0.459100
     10 N6           3.5120    -0.0000     1.1560 nb         1 0OX      -0.810000
     11 C7           4.1600    -0.0020     0.0000 ca         1 0OX       1.010300
     12 O8           5.5120    -0.0030     0.0070 os         1 0OX      -0.366100
     13 C9           6.1550    -0.0030     1.2830 c3         1 0OX       0.123100
     14 N14          3.5260    -0.0020    -1.1610 nb         1 0OX      -0.791000
     15 C15          2.1980    -0.0060    -1.2100 ca         1 0OX       0.842200
     16 N16          1.5410    -0.0120    -2.4220 nv         1 0OX      -0.969500
     17 H1           1.6740     0.0020     2.1510 h4         1 0OX       0.007100
     18 H4           8.2380    -0.7890     3.2540 hc         1 0OX       0.056200
     19 H5           9.3640    -0.0270     2.1070 hc         1 0OX       0.056200
     20 H6           8.4520     2.0100     2.5670 hc         1 0OX       0.056200
     21 H7           7.3260     1.2480     3.7140 hc         1 0OX       0.056200
     22 H8           6.8940     1.9950     0.8370 hc         1 0OX       0.061700
     23 H9           5.7200     1.9330     2.1790 hc         1 0OX       0.061700
     24 H10         -0.4760     0.6840     1.7390 hn         1 0OX       0.476133
     25 H11         -1.6560    -0.1520     0.9770 hn         1 0OX       0.476133
     26 H12          5.5230    -0.4560     2.0380 h1         1 0OX       0.081700
     27 H13          0.6930    -0.5330    -2.5290 hn         1 0OX       0.472800
     28 H14          1.9270     0.4820    -3.2030 hn         1 0OX       0.472800
     29 H2           7.3890    -1.7970     1.3390 hc         1 0OX       0.061700
     30 H131        -0.3970    -0.9510     1.6300 hn         1 0OX       0.476133
     31 H3           8.0150    -0.5110     0.2720 hc         1 0OX       0.061700
@<TRIPOS>BOND
     1     8     1 1
     2     9     1 2
     3     1     2 1
     4     2     3 ar
     5     2    15 ar
     6     3    10 ar
     7    16    15 1
     8    15    14 ar
     9    10    11 ar
    10    14    11 ar
    11     4     5 1
    12     4    13 1
    13    11    12 1
    14     5     6 1
    15    12    13 1
    16    13     7 1
    17     6     7 1
    18     3    17 1
    19     4    29 1
    20     4    31 1
    21     5    18 1
    22     5    19 1
    23     6    20 1
    24     6    21 1
    25     7    22 1
    26     7    23 1
    27     8    24 1
    28     8    25 1
    29    13    26 1
    30    16    27 1
    31    16    28 1
    32    30     8 1
@<TRIPOS>SUBSTRUCTURE
     1 0OX         1 TEMP              0 ****  ****    0 ROOT
