@<TRIPOS>MOLECULE
0OX
   31    32     1     0     0
SMALL
bcc


@<TRIPOS>ATOM
      1 C2           0.1460    -0.0580    -0.1740 c          1 0OX       0.600700
      2 C4           1.5590    -0.0200    -0.0490 ca         1 0OX      -0.582200
      3 C5           2.2450    -0.0030     1.2110 ca         1 0OX       0.535200
      4 C10          6.2780    -1.2410     2.1520 c3         1 0OX      -0.093400
      5 C11          7.7060    -1.7590     2.2560 c3         1 0OX      -0.081400
      6 C12          8.6390    -0.6400     1.8150 c3         1 0OX      -0.081400
      7 C13          7.7980     0.4120     1.1090 c3         1 0OX      -0.093400
      8 N1          -0.6730    -0.0750     1.1180 nz         1 0OX      -0.759400
      9 O3          -0.5870    -0.0810    -1.1640 o          1 0OX      -0.500100
     10 N6           3.5490     0.0340     1.3560 nb         1 0OX      -0.742000
     11 C7           4.3000     0.0600     0.1590 ca         1 0OX       0.964300
     12 O8           5.6510     0.1120     0.1850 os         1 0OX      -0.381100
     13 C9           6.3370     0.1260     1.4740 c3         1 0OX       0.150100
     14 N14          3.7960     0.0470    -1.1020 nb         1 0OX      -0.778000
     15 C15          2.4180     0.0050    -1.2330 ca         1 0OX       0.817200
     16 N16          1.9180    -0.0100    -2.4900 nv         1 0OX      -0.905500
     17 H1           1.6880    -0.0210     2.1690 h4         1 0OX       0.012100
     18 H4           7.9360    -2.0770     3.3030 hc         1 0OX       0.057450
     19 H5           7.8380    -2.6560     1.5990 hc         1 0OX       0.057450
     20 H6           9.1520    -0.1900     2.7030 hc         1 0OX       0.057450
     21 H7           9.4350    -1.0300     1.1330 hc         1 0OX       0.057450
     22 H8           7.9340     0.3530    -0.0030 hc         1 0OX       0.065700
     23 H9           8.0780     1.4450     1.4310 hc         1 0OX       0.065700
     24 H10         -0.4800     0.7640     1.6680 hn         1 0OX       0.463133
     25 H11         -0.4400    -0.9020     1.6720 hn         1 0OX       0.463133
     26 H12          5.8950     0.9390     2.1050 h1         1 0OX       0.077700
     27 H13          2.5300     0.0080    -3.2790 hn         1 0OX       0.477300
     28 H14          0.9370    -0.0390    -2.6530 hn         1 0OX       0.477300
     29 H2           5.6440    -1.9470     1.5590 hc         1 0OX       0.065700
     30 H131        -1.6720    -0.1000     0.8770 hn         1 0OX       0.463133
     31 H3           5.8160    -1.1390     3.1660 hc         1 0OX       0.065700
@<TRIPOS>BOND
     1     1     2 1   
     2     1     8 1   
     3     1     9 2   
     4     2     3 ar  
     5     2    15 ar  
     6     3    10 ar  
     7     3    17 1   
     8     4     5 1   
     9     4    13 1   
    10     4    29 1   
    11     4    31 1   
    12     5     6 1   
    13     5    18 1   
    14     5    19 1   
    15     6     7 1   
    16     6    20 1   
    17     6    21 1   
    18     7    13 1   
    19     7    22 1   
    20     7    23 1   
    21     8    24 1   
    22     8    25 1   
    23     8    30 1   
    24    10    11 ar  
    25    11    12 1   
    26    11    14 ar  
    27    12    13 1   
    28    13    26 1   
    29    14    15 ar  
    30    15    16 1   
    31    16    27 1   
    32    16    28 1   
@<TRIPOS>SUBSTRUCTURE
     1 0OX         1 TEMP              0 ****  ****    0 ROOT
