@<TRIPOS>MOLECULE
0OX
   31    32     1     0     0
SMALL
bcc


@<TRIPOS>ATOM
      1 C2           0.0000     0.0000     0.0000 c          1 0OX       0.382700
      2 C4           1.4720     0.0000     0.0000 ca         1 0OX      -0.606200
      3 C5           2.1920     0.0000     1.2000 ca         1 0OX       0.551200
      4 C10          7.5210    -0.7290     1.2110 c3         1 0OX      -0.035900
      5 C11          8.3240    -0.1420     2.3900 c3         1 0OX      -0.019400
      6 C12          7.7090     1.2340     2.7000 c3         1 0OX      -0.019400
      7 C13          6.5530     1.4350     1.6990 c3         1 0OX      -0.035900
      8 N1          -0.6730    -0.1100     1.1630 nz         1 0OX       0.205600
      9 O3          -0.6080     0.1060    -1.0470 o          1 0OX      -0.492100
     10 N6           3.5120    -0.0000     1.1560 nb         1 0OX      -0.699000
     11 C7           4.1600    -0.0020     0.0000 ca         1 0OX       0.938300
     12 O8           5.5120    -0.0030     0.0070 os         1 0OX      -0.361100
     13 C9           6.1550    -0.0030     1.2830 c3         1 0OX       0.153100
     14 N14          3.5260    -0.0020    -1.1610 nb         1 0OX      -0.690000
     15 C15          2.1980    -0.0060    -1.2100 ca         1 0OX       0.636200
     16 N16          1.5410    -0.0120    -2.4220 nv         1 0OX      -0.444500
     17 H1           1.6740     0.0020     2.1510 h4         1 0OX      -0.043900
     18 H4           8.2380    -0.7890     3.2540 hc         1 0OX       0.022700
     19 H5           9.3640    -0.0270     2.1070 hc         1 0OX       0.022700
     20 H6           8.4520     2.0100     2.5670 hc         1 0OX       0.022700
     21 H7           7.3260     1.2480     3.7140 hc         1 0OX       0.022700
     22 H8           6.8940     1.9950     0.8370 hc         1 0OX       0.027700
     23 H9           5.7200     1.9330     2.1790 hc         1 0OX       0.027700
     24 H10         -0.4760     0.6840     1.7390 hn         1 0OX       0.244467
     25 H11         -1.6560    -0.1520     0.9770 hn         1 0OX       0.244467
     26 H12          5.5230    -0.4560     2.0380 h1         1 0OX       0.045700
     27 H13          0.6930    -0.5330    -2.5290 hn         1 0OX       0.299300
     28 H14          1.9270     0.4820    -3.2030 hn         1 0OX       0.299300
     29 H2           7.3890    -1.7970     1.3390 hc         1 0OX       0.027700
     30 H131        -0.3970    -0.9510     1.6300 hn         1 0OX       0.244467
     31 H3           8.0150    -0.5110     0.2720 hc         1 0OX       0.027700
@<TRIPOS>BOND
     1     1     2 1   
     2     1     8 1   
     3     1     9 2   
     4     2     3 ar  
     5     2    15 ar  
     6     3    10 ar  
     7     3    17 1   
     8     4     5 1   
     9     4    13 1   
    10     4    29 1   
    11     4    31 1   
    12     5     6 1   
    13     5    18 1   
    14     5    19 1   
    15     6     7 1   
    16     6    20 1   
    17     6    21 1   
    18     7    13 1   
    19     7    22 1   
    20     7    23 1   
    21     8    24 1   
    22     8    25 1   
    23     8    30 1   
    24    10    11 ar  
    25    11    12 1   
    26    11    14 ar  
    27    12    13 1   
    28    13    26 1   
    29    14    15 ar  
    30    15    16 1   
    31    16    27 1   
    32    16    28 1   
@<TRIPOS>SUBSTRUCTURE
     1 0OX         1 TEMP              0 ****  ****    0 ROOT
