@<TRIPOS>MOLECULE
0OY
   28    29     1     0     0
SMALL
bcc


@<TRIPOS>ATOM
      1 O1           0.0420    -0.1860     0.1410 o          1 0OY      -0.594100
      2 C1           1.2720    -0.0260     0.0110 c          1 0OY       0.670700
      3 N            2.0680     0.2550     1.1230 n          1 0OY      -0.458800
      4 C11          3.4930     0.0140     1.1340 c3         1 0OY       0.047000
      5 C10          3.9130    -1.1310     2.0700 c3         1 0OY       0.101400
      6 O3           3.3580    -0.9790     3.3710 os         1 0OY      -0.411600
      7 C9           1.9380    -0.8720     3.3470 c3         1 0OY       0.101400
      8 C8           1.4700     0.2770     2.4440 c3         1 0OY       0.047000
      9 C2           1.9010    -0.0540    -1.3390 ca         1 0OY      -0.174600
     10 C7           2.7240     0.9860    -1.7820 ca         1 0OY      -0.056000
     11 C6           3.2480     0.9640    -3.0720 ca         1 0OY      -0.195000
     12 C5           2.9420    -0.1120    -3.9180 ca         1 0OY       0.144100
     13 O2           3.4290    -0.2090    -5.1990 oh         1 0OY      -0.492100
     14 C4           2.1090    -1.1580    -3.4850 ca         1 0OY      -0.195000
     15 C3           1.5860    -1.1160    -2.1990 ca         1 0OY      -0.056000
     16 H1           3.9900     0.9640     1.4870 h1         1 0OY       0.068950
     17 H2           3.8660    -0.2170     0.0990 h1         1 0OY       0.068950
     18 H3           5.0220    -1.1050     2.2340 h1         1 0OY       0.056950
     19 H4           3.6090    -2.1240     1.6450 h1         1 0OY       0.056950
     20 H5           1.4940    -1.8480     3.0170 h1         1 0OY       0.056950
     21 H6           1.6580    -0.6630     4.4130 h1         1 0OY       0.056950
     22 H7           1.7640     1.2540     2.9230 h1         1 0OY       0.068950
     23 H8           0.3480     0.2400     2.3580 h1         1 0OY       0.068950
     24 H9           2.9540     1.8300    -1.1140 ha         1 0OY       0.149000
     25 H10          3.8900     1.7830    -3.4240 ha         1 0OY       0.148000
     26 H11          3.9600     0.5810    -5.3800 ho         1 0OY       0.423000
     27 H12          1.8760    -1.9860    -4.1700 ha         1 0OY       0.148000
     28 H13          0.9100    -1.9130    -1.8500 ha         1 0OY       0.149000
@<TRIPOS>BOND
     1     1     2 2   
     2     2     3 1   
     3     2     9 1   
     4     3     4 1   
     5     3     8 1   
     6     4     5 1   
     7     4    16 1   
     8     4    17 1   
     9     5     6 1   
    10     5    18 1   
    11     5    19 1   
    12     6     7 1   
    13     7     8 1   
    14     7    20 1   
    15     7    21 1   
    16     8    22 1   
    17     8    23 1   
    18     9    10 ar  
    19     9    15 ar  
    20    10    11 ar  
    21    10    24 1   
    22    11    12 ar  
    23    11    25 1   
    24    12    13 1   
    25    12    14 ar  
    26    13    26 1   
    27    14    15 ar  
    28    14    27 1   
    29    15    28 1   
@<TRIPOS>SUBSTRUCTURE
     1 0OY         1 TEMP              0 ****  ****    0 ROOT
