@<TRIPOS>MOLECULE
0OY
   28    29     1     0     0
SMALL
bcc


@<TRIPOS>ATOM
      1 O1           0.0000     0.0000     0.0000 o          1 0OY      -0.644100
      2 C1           1.2160     0.0000     0.0000 c          1 0OY       0.615700
      3 N            1.8890     0.0000     1.1680 n          1 0OY      -0.147800
      4 C11          1.1770    -0.0840     2.4530 c3         1 0OY      -0.005000
      5 C10          1.8150    -1.2010     3.2870 c3         1 0OY       0.198900
      6 O3           3.2270    -0.9880     3.3560 os         1 0OY      -0.405600
      7 C9           3.8890    -1.0410     2.0910 c3         1 0OY       0.198900
      8 C8           3.3580     0.0780     1.1950 c3         1 0OY      -0.005000
      9 C2           1.9540    -0.0070    -1.2770 ca         1 0OY      -0.167600
     10 C7           1.6070    -0.9130    -2.2830 ca         1 0OY      -0.047000
     11 C6           2.2990    -0.9150    -3.4740 ca         1 0OY      -0.147000
     12 C5           3.3400    -0.0180    -3.6770 ca         1 0OY       0.144100
     13 O2           4.0190    -0.0230    -4.8520 oh         1 0OY      -0.502100
     14 C4           3.6870     0.8860    -2.6790 ca         1 0OY      -0.147000
     15 C3           2.9980     0.8980    -1.4880 ca         1 0OY      -0.047000
     16 H1           0.1330    -0.3130     2.2760 h1         1 0OY       0.042950
     17 H2           1.2650     0.8590     2.9790 h1         1 0OY       0.042950
     18 H3           1.6170    -2.1580     2.8200 h1         1 0OY       0.015450
     19 H4           1.3990    -1.1870     4.2870 h1         1 0OY       0.015450
     20 H5           4.9550    -0.9120     2.2360 h1         1 0OY       0.015450
     21 H6           3.6970    -1.9990     1.6230 h1         1 0OY       0.015450
     22 H7           3.7460    -0.0460     0.1910 h1         1 0OY       0.042950
     23 H8           3.6630     1.0370     1.5930 h1         1 0OY       0.042950
     24 H9           0.7960    -1.6130    -2.1260 ha         1 0OY       0.116000
     25 H10          2.0300    -1.6180    -4.2530 ha         1 0OY       0.117500
     26 H11          3.6010     0.5650    -5.4590 ho         1 0OY       0.408000
     27 H12          4.4980     1.5860    -2.8420 ha         1 0OY       0.117500
     28 H13          3.2700     1.6030    -0.7110 ha         1 0OY       0.116000
@<TRIPOS>BOND
     1     1     2 2   
     2     2     3 1   
     3     2     9 1   
     4     3     4 1   
     5     3     8 1   
     6     4     5 1   
     7     4    16 1   
     8     4    17 1   
     9     5     6 1   
    10     5    18 1   
    11     5    19 1   
    12     6     7 1   
    13     7     8 1   
    14     7    20 1   
    15     7    21 1   
    16     8    22 1   
    17     8    23 1   
    18     9    10 ar  
    19     9    15 ar  
    20    10    11 ar  
    21    10    24 1   
    22    11    12 ar  
    23    11    25 1   
    24    12    13 1   
    25    12    14 ar  
    26    13    26 1   
    27    14    15 ar  
    28    14    27 1   
    29    15    28 1   
@<TRIPOS>SUBSTRUCTURE
     1 0OY         1 TEMP              0 ****  ****    0 ROOT
