@<TRIPOS>MOLECULE
molecule
   41    43     1     0     0
SMALL
bcc


@<TRIPOS>ATOM
      1 CAH          0.0000     0.0000     0.0000 ca         1 0P4      -0.109500
      2 CAR          1.3830     0.0000     0.0000 ca         1 0P4       0.035900
      3 Cl1          2.2510     0.0010    -1.5030 cl         1 0P4      -0.095400
      4 CAG          2.0740     0.0000     1.1990 ca         1 0P4      -0.115000
      5 CAS          1.3820    -0.0010     2.3960 ca         1 0P4       0.035900
      6 Cl2          2.2480    -0.0010     3.9000 cl         1 0P4      -0.095400
      7 CAI         -0.0020    -0.0020     2.3940 ca         1 0P4      -0.109500
      8 CAT         -0.6920     0.0040     1.1960 ca         1 0P4      -0.070300
      9 CAM         -2.1990     0.0050     1.1960 c3         1 0P4       0.206100
     10 NAO         -2.6880     1.3900     1.2020 n7         1 0P4      -0.813200
     11 CAK         -4.1570     1.4290     1.2010 c3         1 0P4       0.159800
     12 CAJ         -4.6280     2.8850     1.2070 c3         1 0P4      -0.097400
     13 CAL         -6.1570     2.9260     1.2060 c3         1 0P4       0.234800
     14 NAP         -6.6090     4.3190     1.2130 nu         1 0P4      -0.880200
     15 CAU         -7.9570     4.6070     1.2130 cc         1 0P4       0.673700
     16 NAQ         -8.9580     3.6790     1.2080 na         1 0P4      -0.295300
     17 CAW        -10.1590     4.3690     1.2100 ca         1 0P4      -0.104200
     18 CAF        -11.4910     3.9820     1.2070 ca         1 0P4      -0.121000
     19 CAD        -12.4840     4.9390     1.2100 ca         1 0P4      -0.131000
     20 CAC        -12.1600     6.2880     1.2160 ca         1 0P4      -0.137000
     21 CAE        -10.8430     6.6900     1.2190 ca         1 0P4      -0.089000
     22 CAV         -9.8260     5.7330     1.2170 ca         1 0P4       0.130400
     23 NAN         -8.4690     5.8130     1.2240 nd         1 0P4      -0.672100
     24 H1          -0.5410     0.0050    -0.9380 ha         1 0P4       0.149500
     25 H2           3.1580    -0.0000     1.1990 ha         1 0P4       0.158000
     26 H3          -0.5450    -0.0010     3.3320 ha         1 0P4       0.149500
     27 H4          -2.5600    -0.5020     0.3090 h1         1 0P4       0.043700
     28 H5          -2.5610    -0.5100     2.0780 h1         1 0P4       0.043700
     29 H6          -2.3410     1.8700     0.3950 hn         1 0P4       0.359800
     30 H8          -4.5320     0.9240     2.0830 h1         1 0P4       0.034700
     31 H9          -4.5310     0.9320     0.3140 h1         1 0P4       0.034700
     32 H10         -4.2530     3.3900     0.3250 hc         1 0P4       0.061200
     33 H11         -4.2540     3.3820     2.0940 hc         1 0P4       0.061200
     34 H12         -6.5310     2.4290     0.3190 h1         1 0P4       0.036200
     35 H13         -6.5330     2.4210     2.0880 h1         1 0P4       0.036200
     36 H14         -5.9390     5.0630     1.2200 hn         1 0P4       0.472800
     37 H15         -8.8450     2.6940     1.0730 hn         1 0P4       0.295700
     38 H16        -11.7510     2.9300     1.2030 ha         1 0P4       0.122000
     39 H17        -13.5240     4.6350     1.2080 ha         1 0P4       0.130000
     40 H18        -12.9490     7.0300     1.2180 ha         1 0P4       0.131000
     41 H19        -10.5970     7.7450     1.2230 ha         1 0P4       0.141000
@<TRIPOS>BOND
     1     6     5 1   
     2     5     4 ar  
     3     5     7 ar  
     4     4     2 ar  
     5     7     8 ar  
     6     2     3 1   
     7     2     1 ar  
     8     8     1 ar  
     9     8     9 1   
    10     9    10 1   
    11    10    11 1   
    12    11    12 1   
    13    12    13 1   
    14    13    14 1   
    15    14    15 1   
    16    15    16 1   
    17    15    23 2   
    18    16    17 1   
    19    23    22 1   
    20    17    22 ar  
    21    17    18 ar  
    22    22    21 ar  
    23    18    19 ar  
    24    21    20 ar  
    25    19    20 ar  
    26     1    24 1   
    27     4    25 1   
    28     7    26 1   
    29     9    27 1   
    30     9    28 1   
    31    10    29 1   
    32    11    30 1   
    33    11    31 1   
    34    12    32 1   
    35    12    33 1   
    36    13    34 1   
    37    13    35 1   
    38    14    36 1   
    39    16    37 1   
    40    18    38 1   
    41    19    39 1   
    42    20    40 1   
    43    21    41 1   
@<TRIPOS>SUBSTRUCTURE
     1 0P4         1 TEMP              0 ****  ****    0 ROOT
