@<TRIPOS>MOLECULE
0P4
   42    44     1     0     0
SMALL
bcc


@<TRIPOS>ATOM
      1 CAH         -1.1730     0.5930     1.7380 ca         1 0P4      -0.105500
      2 CAR          0.0370     1.1770     2.1230 ca         1 0P4       0.025400
      3 Cl1          0.5780     2.5740     1.3400 cl         1 0P4      -0.031400
      4 CAG          0.8020     0.6170     3.1540 ca         1 0P4      -0.080000
      5 CAS          0.3450    -0.5390     3.7960 ca         1 0P4       0.025400
      6 Cl2          1.2590    -1.2230     5.0430 cl         1 0P4      -0.031400
      7 CAI         -0.8630    -1.1350     3.4180 ca         1 0P4      -0.105500
      8 CAT         -1.6170    -0.5630     2.3890 ca         1 0P4      -0.162300
      9 CAM         -2.9300    -1.1610     2.0070 c3         1 0P4       0.173100
     10 NAO         -2.7990    -2.1190     0.8580 ny         1 0P4      -0.768000
     11 CAK         -2.3210    -3.4660     1.3010 c3         1 0P4       0.100800
     12 CAJ         -2.0620    -4.4110     0.1400 c3         1 0P4      -0.110400
     13 CAL         -1.7510    -5.8220     0.6610 c3         1 0P4       0.199800
     14 NAP         -0.5080    -5.8980     1.3990 nu         1 0P4      -0.787200
     15 CAU         -0.5980    -5.9710     2.8090 cc         1 0P4       0.580700
     16 NAQ          0.3330    -6.7200     3.5920 na         1 0P4      -0.283300
     17 CAW          0.0010    -6.4650     4.9310 ca         1 0P4      -0.074200
     18 CAF          0.5690    -6.8990     6.1330 ca         1 0P4      -0.119000
     19 CAD         -0.0480    -6.4940     7.3100 ca         1 0P4      -0.107000
     20 CAC         -1.1970    -5.6840     7.3010 ca         1 0P4      -0.131000
     21 CAE         -1.7740    -5.2420     6.1190 ca         1 0P4      -0.090000
     22 CAV         -1.1780    -5.6220     4.9080 ca         1 0P4       0.077400
     23 NAN         -1.5290    -5.3280     3.5770 nd         1 0P4      -0.654100
     24 H1          -1.7780     1.0550     0.9420 ha         1 0P4       0.160500
     25 H2           1.7540     1.0860     3.4590 ha         1 0P4       0.185000
     26 H3          -1.2180    -2.0420     3.9380 ha         1 0P4       0.160500
     27 H4          -3.3810    -1.7220     2.8770 hx         1 0P4       0.111700
     28 H5          -3.6470    -0.3500     1.6860 hx         1 0P4       0.111700
     29 H6          -2.1330    -1.7350     0.1760 hn         1 0P4       0.444800
     30 H8          -1.3720    -3.3020     1.8930 hx         1 0P4       0.127700
     31 H9          -3.1050    -3.8980     1.9900 hx         1 0P4       0.127700
     32 H10         -1.2090    -4.0370    -0.4860 hc         1 0P4       0.066200
     33 H11         -2.9670    -4.4950    -0.5180 hc         1 0P4       0.066200
     34 H12         -1.6740    -6.4910    -0.2460 h1         1 0P4       0.072200
     35 H13         -2.6290    -6.1770     1.2740 h1         1 0P4       0.072200
     36 H14          0.1340    -6.5610     1.0120 hn         1 0P4       0.417800
     37 H15          1.2000    -7.0730     3.2800 hn         1 0P4       0.309700
     38 H16          1.4610    -7.5390     6.1480 ha         1 0P4       0.147000
     39 H17          0.3700    -6.8180     8.2760 ha         1 0P4       0.147000
     40 H18         -1.6510    -5.3970     8.2630 ha         1 0P4       0.144000
     41 H19         -2.6790    -4.6200     6.1270 ha         1 0P4       0.141000
     42 HAO2        -3.7080    -2.2190     0.3970 hn         1 0P4       0.444800
@<TRIPOS>BOND
     1     1     2 ar  
     2     1     8 ar  
     3     1    24 1   
     4     2     3 1   
     5     2     4 ar  
     6     4     5 ar  
     7     4    25 1   
     8     5     6 1   
     9     5     7 ar  
    10     7     8 ar  
    11     7    26 1   
    12     8     9 1   
    13     9    10 1   
    14     9    27 1   
    15     9    28 1   
    16    10    11 1   
    17    10    29 1   
    18    10    42 1   
    19    11    12 1   
    20    11    30 1   
    21    11    31 1   
    22    12    13 1   
    23    12    32 1   
    24    12    33 1   
    25    13    14 1   
    26    13    34 1   
    27    13    35 1   
    28    14    15 1   
    29    14    36 1   
    30    15    16 1   
    31    15    23 2   
    32    16    17 1   
    33    16    37 1   
    34    17    18 ar  
    35    17    22 ar  
    36    18    19 ar  
    37    18    38 1   
    38    19    20 ar  
    39    19    39 1   
    40    20    21 ar  
    41    20    40 1   
    42    21    22 ar  
    43    21    41 1   
    44    22    23 1   
@<TRIPOS>SUBSTRUCTURE
     1 0P4         1 TEMP              0 ****  ****    0 ROOT
