@<TRIPOS>MOLECULE
0P5
   56    60     1     0     0
SMALL
bcc


@<TRIPOS>ATOM
      1 Cl1          0.1550    -0.7680     0.4920 cl         1 0P5      -0.058400
      2 CAY          1.7200    -0.2050     0.1670 ca         1 0P5       0.052400
      3 CAJ          2.5910     0.0190     1.2410 ca         1 0P5      -0.204000
      4 CAZ          3.8850     0.4850     0.9900 ca         1 0P5       0.142100
      5 OAV          4.8230     0.7350     1.9680 os         1 0P5      -0.320900
      6 CAA          4.4040     0.5350     3.3150 c3         1 0P5       0.109700
      7 CAF          4.3270     0.7320    -0.3260 ca         1 0P5      -0.151000
      8 CAG          3.4630     0.5060    -1.3850 ca         1 0P5      -0.084000
      9 CBD          2.1600     0.0410    -1.1420 ca         1 0P5       0.038100
     10 OAW          1.2770    -0.0120    -2.2230 os         1 0P5      -0.331400
     11 C4           1.1410    -1.2580    -2.8260 ca         1 0P5       0.703600
     12 C5           1.9100    -2.3770    -2.4620 ca         1 0P5      -0.499600
     13 N3           0.1980    -1.2550    -3.8010 nb         1 0P5      -0.766000
     14 C2           0.0240    -2.4660    -4.4550 ca         1 0P5       0.919900
     15 N           -0.8740    -2.4800    -5.5570 nh         1 0P5      -0.740300
     16 CA          -1.8750    -1.4280    -5.5910 c3         1 0P5       0.133800
     17 CAM         -1.2630    -3.7650    -6.1000 c3         1 0P5       0.194800
     18 CAL         -1.9610    -3.6380    -7.4710 c3         1 0P5       0.090000
     19 NAS         -2.9980    -2.6510    -7.4870 ns         1 0P5      -0.572900
     20 C           -2.9370    -1.5340    -6.6830 c          1 0P5       0.689500
     21 O           -3.7740    -0.6200    -6.8160 o          1 0P5      -0.634500
     22 N1           0.6900    -3.6420    -4.1540 nb         1 0P5      -0.845000
     23 C6           1.6530    -3.5810    -3.1820 ca         1 0P5       0.719200
     24 NAT          2.4570    -4.7000    -2.9170 nu         1 0P5      -0.828900
     25 CAN          2.1580    -5.9900    -3.4760 c3         1 0P5       0.187500
     26 CBC          0.9580    -6.6780    -2.8690 cc         1 0P5       0.365800
     27 NAU         -0.3440    -6.5040    -3.3840 na         1 0P5      -0.263300
     28 CBG         -1.1930    -7.2640    -2.5780 ca         1 0P5      -0.074200
     29 CAI         -2.5780    -7.4820    -2.5930 ca         1 0P5      -0.136000
     30 CAE         -3.0990    -8.3320    -1.6310 ca         1 0P5      -0.110000
     31 CAD         -2.2800    -8.9600    -0.6720 ca         1 0P5      -0.154000
     32 CAH         -0.9090    -8.7610    -0.6380 ca         1 0P5      -0.067000
     33 CBF         -0.3380    -7.9050    -1.5920 ca         1 0P5       0.061400
     34 NAR          0.9960    -7.5110    -1.8060 nd         1 0P5      -0.565100
     35 H1           2.2450    -0.1700     2.2680 ha         1 0P5       0.158000
     36 H2           4.1340    -0.5350     3.4870 h1         1 0P5       0.050033
     37 H3           3.5450     1.2040     3.5640 h1         1 0P5       0.050033
     38 H4           5.3100     0.8150     3.9100 h1         1 0P5       0.050033
     39 H5           5.3500     1.1010    -0.4930 ha         1 0P5       0.161000
     40 H6           3.7790     0.7000    -2.4220 ha         1 0P5       0.160000
     41 H7           2.6660    -2.3200    -1.6720 ha         1 0P5       0.167000
     42 H8          -2.4360    -1.3570    -4.6120 h1         1 0P5       0.096700
     43 H9          -1.3440    -0.4440    -5.7580 h1         1 0P5       0.096700
     44 H10         -0.3450    -4.3980    -6.2660 h1         1 0P5       0.056700
     45 H11         -1.9450    -4.3130    -5.3870 h1         1 0P5       0.056700
     46 H12         -1.1850    -3.4000    -8.2560 h1         1 0P5       0.050200
     47 H13         -2.4090    -4.6420    -7.7200 h1         1 0P5       0.050200
     48 H14         -3.6480    -2.6660    -8.2380 hn         1 0P5       0.326500
     49 H15          2.7980    -4.7240    -1.9770 hn         1 0P5       0.427800
     50 H16          2.0090    -5.8920    -4.5890 h1         1 0P5       0.087700
     51 H17          3.0650    -6.6410    -3.2990 h1         1 0P5       0.087700
     52 H18         -0.6110    -5.8730    -4.0940 hn         1 0P5       0.316700
     53 H19         -3.2220    -6.9970    -3.3370 ha         1 0P5       0.134000
     54 H20         -4.1820    -8.5250    -1.6110 ha         1 0P5       0.133000
     55 H21         -2.7480    -9.6260     0.0680 ha         1 0P5       0.133000
     56 H22         -0.2770    -9.2560     0.1130 ha         1 0P5       0.147000
@<TRIPOS>BOND
     1     1     2 1   
     2     2     3 ar  
     3     2     9 ar  
     4     3     4 ar  
     5     3    35 1   
     6     4     5 1   
     7     4     7 ar  
     8     5     6 1   
     9     6    36 1   
    10     6    37 1   
    11     6    38 1   
    12     7     8 ar  
    13     7    39 1   
    14     8     9 ar  
    15     8    40 1   
    16     9    10 1   
    17    10    11 1   
    18    11    12 ar  
    19    11    13 ar  
    20    12    23 ar  
    21    12    41 1   
    22    13    14 ar  
    23    14    15 1   
    24    14    22 ar  
    25    15    16 1   
    26    15    17 1   
    27    16    20 1   
    28    16    42 1   
    29    16    43 1   
    30    17    18 1   
    31    17    44 1   
    32    17    45 1   
    33    18    19 1   
    34    18    46 1   
    35    18    47 1   
    36    19    20 1   
    37    19    48 1   
    38    20    21 2   
    39    22    23 ar  
    40    23    24 1   
    41    24    25 1   
    42    24    49 1   
    43    25    26 1   
    44    25    50 1   
    45    25    51 1   
    46    26    27 1   
    47    26    34 2   
    48    27    28 1   
    49    27    52 1   
    50    28    29 ar  
    51    28    33 ar  
    52    29    30 ar  
    53    29    53 1   
    54    30    31 ar  
    55    30    54 1   
    56    31    32 ar  
    57    31    55 1   
    58    32    33 ar  
    59    32    56 1   
    60    33    34 1   
@<TRIPOS>SUBSTRUCTURE
     1 0P5         1 TEMP              0 ****  ****    0 ROOT
