@<TRIPOS>MOLECULE
0P5
   56    60     1     0     0
SMALL
bcc


@<TRIPOS>ATOM
      1 Cl1          0.0000     0.0000     0.0000 cl         1 0P5      -0.001400
      2 CAY          1.7360     0.0000     0.0000 ca         1 0P5      -0.009600
      3 CAJ          2.4280     0.0000     1.1960 ca         1 0P5      -0.132000
      4 CAZ          3.8140    -0.0010     1.1950 ca         1 0P5       0.160100
      5 OAV          4.4950    -0.0010     2.3730 os         1 0P5      -0.304900
      6 CAA          5.9230    -0.0000     2.2970 c3         1 0P5       0.244700
      7 CAF          4.5080    -0.0010    -0.0060 ca         1 0P5      -0.202000
      8 CAG          3.8170    -0.0010    -1.2030 ca         1 0P5      -0.051000
      9 CBD          2.4310    -0.0060    -1.2020 ca         1 0P5       0.075100
     10 OAW          1.7500    -0.0110    -2.3800 os         1 0P5      -0.326400
     11 C4           1.3160     1.1760    -2.8700 ca         1 0P5       0.709600
     12 C5           0.5120     1.2190    -4.0020 ca         1 0P5      -0.487600
     13 N3           1.6500     2.3150    -2.2690 nb         1 0P5      -0.790000
     14 C2           1.2300     3.4790    -2.7400 ca         1 0P5       0.777900
     15 N            1.6000     4.6430    -2.0870 nh         1 0P5      -0.461300
     16 CA           0.4330     5.2980    -1.4820 c3         1 0P5       0.087800
     17 CAM          2.6200     4.3710    -1.0620 c3         1 0P5       0.126800
     18 CAL          3.2110     5.7030    -0.5930 c3         1 0P5       0.044000
     19 NAS          2.1390     6.6300    -0.2420 ns         1 0P5      -0.179900
     20 C            0.8770     6.4700    -0.6520 c          1 0P5       0.613500
     21 O            0.0540     7.3060    -0.3400 o          1 0P5      -0.692500
     22 N1           0.4680     3.5590    -3.8210 nb         1 0P5      -0.720000
     23 C6           0.0850     2.4610    -4.4660 ca         1 0P5       0.588200
     24 NAT         -0.7140     2.5520    -5.5950 nu         1 0P5      -0.490900
     25 CAN         -1.1290     1.3360    -6.2980 c3         1 0P5       0.178500
     26 CBC         -1.9840     1.7080    -7.4830 cc         1 0P5       0.162800
     27 NAU         -1.5280     1.8640    -8.7540 na         1 0P5       0.280700
     28 CBG         -2.6110     2.2020    -9.5410 ca         1 0P5      -0.272200
     29 CAI         -2.7750     2.4870   -10.8890 ca         1 0P5      -0.089000
     30 CAE         -4.0270     2.8030   -11.3730 ca         1 0P5      -0.081000
     31 CAD         -5.1220     2.8380   -10.5210 ca         1 0P5      -0.118000
     32 CAH         -4.9800     2.5610    -9.1910 ca         1 0P5      -0.032000
     33 CBF         -3.7200     2.2370    -8.6780 ca         1 0P5       0.058400
     34 NAR         -3.2670     1.9210    -7.4390 nd         1 0P5      -0.490100
     35 H1           1.8870    -0.0170     2.1350 ha         1 0P5       0.131000
     36 H2           6.3370    -0.0010     3.2970 h1         1 0P5      -0.000967
     37 H3           6.2560     0.8840     1.7680 h1         1 0P5      -0.000967
     38 H4           6.2570    -0.8850     1.7670 h1         1 0P5      -0.000967
     39 H5           5.5920     0.0010    -0.0060 ha         1 0P5       0.125000
     40 H6           4.3590    -0.0030    -2.1410 ha         1 0P5       0.114000
     41 H7           0.2160     0.3070    -4.5060 ha         1 0P5       0.143000
     42 H8          -0.2290     5.6460    -2.2660 h1         1 0P5       0.049700
     43 H9          -0.0890     4.5890    -0.8510 h1         1 0P5       0.049700
     44 H10          3.4040     3.7560    -1.4850 h1         1 0P5       0.037700
     45 H11          2.1630     3.8620    -0.2220 h1         1 0P5       0.037700
     46 H12          3.8070     6.1300    -1.3900 h1         1 0P5       0.018200
     47 H13          3.8340     5.5310     0.2760 h1         1 0P5       0.018200
     48 H14          2.3590     7.4210     0.3300 hn         1 0P5       0.183500
     49 H15         -1.0360     3.4460    -5.9090 hn         1 0P5       0.311800
     50 H16         -0.2530     0.7990    -6.6390 h1         1 0P5       0.027700
     51 H17         -1.6990     0.7070    -5.6250 h1         1 0P5       0.027700
     52 H18         -0.6110     1.6330    -9.0830 hn         1 0P5       0.128700
     53 H19         -1.9230     2.4610   -11.5590 ha         1 0P5       0.102000
     54 H20         -4.1570     3.0250   -12.4250 ha         1 0P5       0.104000
     55 H21         -6.1000     3.0880   -10.9150 ha         1 0P5       0.107000
     56 H22         -5.8410     2.5910    -8.5350 ha         1 0P5       0.112000
@<TRIPOS>BOND
     1     1     2 1   
     2     2     3 ar  
     3     2     9 ar  
     4     3     4 ar  
     5     3    35 1   
     6     4     5 1   
     7     4     7 ar  
     8     5     6 1   
     9     6    36 1   
    10     6    37 1   
    11     6    38 1   
    12     7     8 ar  
    13     7    39 1   
    14     8     9 ar  
    15     8    40 1   
    16     9    10 1   
    17    10    11 1   
    18    11    12 ar  
    19    11    13 ar  
    20    12    23 ar  
    21    12    41 1   
    22    13    14 ar  
    23    14    15 1   
    24    14    22 ar  
    25    15    16 1   
    26    15    17 1   
    27    16    20 1   
    28    16    42 1   
    29    16    43 1   
    30    17    18 1   
    31    17    44 1   
    32    17    45 1   
    33    18    19 1   
    34    18    46 1   
    35    18    47 1   
    36    19    20 1   
    37    19    48 1   
    38    20    21 2   
    39    22    23 ar  
    40    23    24 1   
    41    24    25 1   
    42    24    49 1   
    43    25    26 1   
    44    25    50 1   
    45    25    51 1   
    46    26    27 1   
    47    26    34 2   
    48    27    28 1   
    49    27    52 1   
    50    28    29 ar  
    51    28    33 ar  
    52    29    30 ar  
    53    29    53 1   
    54    30    31 ar  
    55    30    54 1   
    56    31    32 ar  
    57    31    55 1   
    58    32    33 ar  
    59    32    56 1   
    60    33    34 1   
@<TRIPOS>SUBSTRUCTURE
     1 0P5         1 TEMP              0 ****  ****    0 ROOT
