@<TRIPOS>MOLECULE
molecule
   56    60     1     0     0
SMALL
bcc


@<TRIPOS>ATOM
      1 Cl1          0.0000     0.0000     0.0000 cl         1 0P5      -0.080400
      2 CAY          1.7360     0.0000     0.0000 ca         1 0P5       0.062400
      3 CAJ          2.4280     0.0000     1.1960 ca         1 0P5      -0.150000
      4 CAZ          3.8140    -0.0010     1.1950 ca         1 0P5       0.154100
      5 OAV          4.4950    -0.0010     2.3730 os         1 0P5      -0.323900
      6 CAA          5.9230    -0.0000     2.2970 c3         1 0P5       0.127700
      7 CAF          4.5080    -0.0010    -0.0060 ca         1 0P5      -0.217000
      8 CAG          3.8170    -0.0010    -1.2030 ca         1 0P5      -0.075000
      9 CBD          2.4310    -0.0060    -1.2020 ca         1 0P5       0.076100
     10 OAW          1.7500    -0.0110    -2.3800 os         1 0P5      -0.343400
     11 C4           1.3160     1.1760    -2.8700 ca         1 0P5       0.734600
     12 C5           0.5120     1.2190    -4.0020 ca         1 0P5      -0.485600
     13 N3           1.6500     2.3150    -2.2690 nb         1 0P5      -0.886000
     14 C2           1.2300     3.4790    -2.7400 ca         1 0P5       0.934900
     15 N            1.6000     4.6430    -2.0870 nh         1 0P5      -0.683300
     16 CA           0.4330     5.2980    -1.4820 c3         1 0P5       0.106800
     17 CAM          2.6200     4.3710    -1.0620 c3         1 0P5       0.156800
     18 CAL          3.2110     5.7030    -0.5930 c3         1 0P5       0.101000
     19 NAS          2.1390     6.6300    -0.2420 ns         1 0P5      -0.574900
     20 C            0.8770     6.4700    -0.6520 c          1 0P5       0.704500
     21 O            0.0540     7.3060    -0.3400 o          1 0P5      -0.649500
     22 N1           0.4680     3.5590    -3.8210 nb         1 0P5      -0.825000
     23 C6           0.0850     2.4610    -4.4660 ca         1 0P5       0.769200
     24 NAT         -0.7140     2.5520    -5.5950 nu         1 0P5      -0.903900
     25 CAN         -1.1290     1.3360    -6.2980 c3         1 0P5       0.243500
     26 CBC         -1.9840     1.7080    -7.4830 cc         1 0P5       0.384800
     27 NAU         -1.5280     1.8640    -8.7540 na         1 0P5      -0.255300
     28 CBG         -2.6110     2.2020    -9.5410 ca         1 0P5      -0.088200
     29 CAI         -2.7750     2.4870   -10.8890 ca         1 0P5      -0.130000
     30 CAE         -4.0270     2.8030   -11.3730 ca         1 0P5      -0.106000
     31 CAD         -5.1220     2.8380   -10.5210 ca         1 0P5      -0.146000
     32 CAH         -4.9800     2.5610    -9.1910 ca         1 0P5      -0.063000
     33 CBF         -3.7200     2.2370    -8.6780 ca         1 0P5       0.086400
     34 NAR         -3.2670     1.9210    -7.4390 nd         1 0P5      -0.579100
     35 H1           1.8870    -0.0170     2.1350 ha         1 0P5       0.163000
     36 H2           6.3370    -0.0010     3.2970 h1         1 0P5       0.044033
     37 H3           6.2560     0.8840     1.7680 h1         1 0P5       0.044033
     38 H4           6.2570    -0.8850     1.7670 h1         1 0P5       0.044033
     39 H5           5.5920     0.0010    -0.0060 ha         1 0P5       0.143000
     40 H6           4.3590    -0.0030    -2.1410 ha         1 0P5       0.149000
     41 H7           0.2160     0.3070    -4.5060 ha         1 0P5       0.154000
     42 H8          -0.2290     5.6460    -2.2660 h1         1 0P5       0.086200
     43 H9          -0.0890     4.5890    -0.8510 h1         1 0P5       0.086200
     44 H10          3.4040     3.7560    -1.4850 h1         1 0P5       0.066700
     45 H11          2.1630     3.8620    -0.2220 h1         1 0P5       0.066700
     46 H12          3.8070     6.1300    -1.3900 h1         1 0P5       0.049700
     47 H13          3.8340     5.5310     0.2760 h1         1 0P5       0.049700
     48 H14          2.3590     7.4210     0.3300 hn         1 0P5       0.327500
     49 H15         -1.0360     3.4460    -5.9090 hn         1 0P5       0.467800
     50 H16         -0.2530     0.7990    -6.6390 h1         1 0P5       0.064700
     51 H17         -1.6990     0.7070    -5.6250 h1         1 0P5       0.064700
     52 H18         -0.6110     1.6330    -9.0830 hn         1 0P5       0.305700
     53 H19         -1.9230     2.4610   -11.5590 ha         1 0P5       0.129000
     54 H20         -4.1570     3.0250   -12.4250 ha         1 0P5       0.135000
     55 H21         -6.1000     3.0880   -10.9150 ha         1 0P5       0.136000
     56 H22         -5.8410     2.5910    -8.5350 ha         1 0P5       0.145000
@<TRIPOS>BOND
     1    30    31 ar  
     2    30    29 ar  
     3    31    32 ar  
     4    29    28 ar  
     5    32    33 ar  
     6    28    33 ar  
     7    28    27 1   
     8    33    34 1   
     9    27    26 1   
    10    34    26 2   
    11    26    25 1   
    12    25    24 1   
    13    24    23 1   
    14    23    22 ar  
    15    23    12 ar  
    16    22    14 ar  
    17    17    18 1   
    18    17    15 1   
    19    18    19 1   
    20    12    11 ar  
    21    14    15 1   
    22    14    13 ar  
    23    15    16 1   
    24    19    20 1   
    25    11    13 ar  
    26    11    10 1   
    27     5     4 1   
    28     5     6 1   
    29    20    16 1   
    30    20    21 2   
    31     4     3 ar  
    32     4     7 ar  
    33     3     2 ar  
    34     7     8 ar  
    35     2     1 1   
    36     2     9 ar  
    37     8     9 ar  
    38     9    10 1   
    39     3    35 1   
    40     6    36 1   
    41     6    37 1   
    42     6    38 1   
    43     7    39 1   
    44     8    40 1   
    45    12    41 1   
    46    16    42 1   
    47    16    43 1   
    48    17    44 1   
    49    17    45 1   
    50    18    46 1   
    51    18    47 1   
    52    19    48 1   
    53    24    49 1   
    54    25    50 1   
    55    25    51 1   
    56    27    52 1   
    57    29    53 1   
    58    30    54 1   
    59    31    55 1   
    60    32    56 1   
@<TRIPOS>SUBSTRUCTURE
     1 0P5         1 TEMP              0 ****  ****    0 ROOT
