@<TRIPOS>MOLECULE
molecule
   20    21     1     0     0
SMALL
bcc


@<TRIPOS>ATOM
      1 CAE          0.0000     0.0000     0.0000 ca         1 0P6      -0.250300
      2 CAG          1.3620     0.0000     0.0000 ca         1 0P6      -0.084000
      3 CAK          2.0310     0.0000     1.2410 ca         1 0P6      -0.150300
      4 CAF          3.4340     0.0000     1.3110 ca         1 0P6      -0.120000
      5 CAC          4.0520     0.0010     2.5240 ca         1 0P6      -0.116000
      6 CAD          3.3140     0.0000     3.7050 ca         1 0P6      -0.160000
      7 CAJ          1.9380    -0.0010     3.6750 ca         1 0P6       0.071800
      8 OAB          1.2290    -0.0020     4.8340 oh         1 0P6      -0.500100
      9 CAL          1.2690    -0.0000     2.4330 ca         1 0P6       0.410600
     10 NAH         -0.0670    -0.0010     2.3720 nb         1 0P6      -0.686000
     11 CAI         -0.6980    -0.0000     1.2170 ca         1 0P6       0.684200
     12 NAA         -2.0860     0.0060     1.2020 nv         1 0P6      -1.084500
     13 H1          -0.5430     0.0000    -0.9370 ha         1 0P6       0.143000
     14 H2           1.9170     0.0000    -0.9300 ha         1 0P6       0.140000
     15 H3           4.0220     0.0020     0.4020 ha         1 0P6       0.134000
     16 H4           5.1350     0.0020     2.5710 ha         1 0P6       0.133000
     17 H5           3.8290     0.0010     4.6580 ha         1 0P6       0.142000
     18 H6           1.2230    -0.8720     5.1980 ho         1 0P6       0.421000
     19 H7          -2.5830     0.8750     1.2120 hn         1 0P6       0.436800
     20 H8          -2.5900    -0.8590     1.2100 hn         1 0P6       0.436800
@<TRIPOS>BOND
     1     5     6 ar  
     2     5     4 ar  
     3     6     7 ar  
     4     4     3 ar  
     5     7     8 1   
     6     7     9 ar  
     7     3     9 ar  
     8     3     2 ar  
     9     9    10 ar  
    10     2     1 ar  
    11    10    11 ar  
    12     1    11 ar  
    13    11    12 1   
    14     1    13 1   
    15     2    14 1   
    16     4    15 1   
    17     5    16 1   
    18     6    17 1   
    19     8    18 1   
    20    12    19 1   
    21    12    20 1   
@<TRIPOS>SUBSTRUCTURE
     1 0P6         1 TEMP              0 ****  ****    0 ROOT
