@<TRIPOS>MOLECULE
0P6
   20    21     1     0     0
SMALL
bcc


@<TRIPOS>ATOM
      1 CAE          0.0300    -0.0020    -0.0070 ca         1 0P6      -0.267300
      2 CAG          1.3950    -0.0030    -0.0200 ca         1 0P6      -0.059000
      3 CAK          2.1260    -0.0130     1.2050 ca         1 0P6      -0.148300
      4 CAF          3.5400    -0.0120     1.2350 ca         1 0P6      -0.139000
      5 CAC          4.2090    -0.0230     2.4370 ca         1 0P6      -0.105000
      6 CAD          3.5020    -0.0350     3.6540 ca         1 0P6      -0.161000
      7 CAJ          2.1150    -0.0370     3.6560 ca         1 0P6       0.078800
      8 OAB          1.5120    -0.0530     4.8900 oh         1 0P6      -0.499100
      9 CAL          1.3750    -0.0280     2.4180 ca         1 0P6       0.380600
     10 NAH         -0.0010    -0.0410     2.4430 nb         1 0P6      -0.753000
     11 CAI         -0.6620    -0.0090     1.2720 ca         1 0P6       0.641200
     12 NAA         -2.0620     0.0930     1.2640 nv         1 0P6      -0.925500
     13 H1          -0.5510     0.0160    -0.9390 ha         1 0P6       0.144000
     14 H2           1.9550     0.0060    -0.9680 ha         1 0P6       0.141000
     15 H3           4.0900    -0.0000     0.2830 ha         1 0P6       0.133000
     16 H4           5.3090    -0.0210     2.4640 ha         1 0P6       0.136000
     17 H5           4.0430    -0.0430     4.6110 ha         1 0P6       0.152000
     18 H6           0.5510    -0.0170     4.7760 ho         1 0P6       0.443000
     19 H7          -2.4900    -0.3530     0.4840 hn         1 0P6       0.403800
     20 H8          -2.5200    -0.0810     2.1310 hn         1 0P6       0.403800
@<TRIPOS>BOND
     1     1     2 ar  
     2     1    11 ar  
     3     1    13 1   
     4     2     3 ar  
     5     2    14 1   
     6     3     4 ar  
     7     3     9 ar  
     8     4     5 ar  
     9     4    15 1   
    10     5     6 ar  
    11     5    16 1   
    12     6     7 ar  
    13     6    17 1   
    14     7     8 1   
    15     7     9 ar  
    16     8    18 1   
    17     9    10 ar  
    18    10    11 ar  
    19    11    12 1   
    20    12    19 1   
    21    12    20 1   
@<TRIPOS>SUBSTRUCTURE
     1 0P6         1 TEMP              0 ****  ****    0 ROOT
