@<TRIPOS>MOLECULE
0P8
   50    52     1     0     0
SMALL
bcc


@<TRIPOS>ATOM
      1 CAA          2.3620    -0.3280    -0.5860 c3         1 0P8       0.117700
      2 OAS          2.2890     0.4490     0.6220 os         1 0P8      -0.415900
      3 CAX          2.2150    -0.2650     1.8070 ca         1 0P8       0.155100
      4 CAU          3.1720    -1.1960     2.2380 ca         1 0P8      -0.065900
      5 Br1          4.6940    -1.6500     1.2550 br         1 0P8       0.001900
      6 CAI          3.0010    -1.8060     3.4900 ca         1 0P8      -0.010000
      7 CAT          1.9200    -1.4780     4.3160 ca         1 0P8      -0.044900
      8 Br2          1.7170    -2.3120     5.9710 br         1 0P8       0.012900
      9 CAJ          0.9950    -0.5180     3.8980 ca         1 0P8      -0.039000
     10 CAW          1.1350     0.0870     2.6480 ca         1 0P8      -0.218300
     11 CAO          0.1270     1.0730     2.1750 c3         1 0P8       0.200100
     12 NAP          0.7630     2.4370     2.0200 ny         1 0P8      -0.777000
     13 CAM         -0.2170     3.4600     1.5720 c3         1 0P8       0.104800
     14 CAL          0.3420     4.8750     1.4570 c3         1 0P8      -0.141400
     15 CAN          1.0380     5.1030     0.1190 c3         1 0P8       0.095800
     16 NAQ          1.3250     6.5460    -0.1510 ny         1 0P8      -0.651800
     17 CAV          1.9590     6.7170    -1.4970 cc         1 0P8       0.149000
     18 CAK          1.1560     6.9970    -2.5580 cd         1 0P8      -0.206200
     19 CAY          1.7390     7.1540    -3.9160 c          1 0P8       0.578900
     20 OAB          1.0150     7.4900    -4.8550 o          1 0P8      -0.456100
     21 CBA          3.1700     6.8620    -4.0160 ca         1 0P8      -0.194600
     22 CAH          3.8000     6.9140    -5.2690 ca         1 0P8      -0.034000
     23 CAF          5.1630     6.6640    -5.3830 ca         1 0P8      -0.122000
     24 CAE          5.9150     6.3630    -4.2450 ca         1 0P8      -0.053000
     25 CAG          5.3150     6.3050    -2.9900 ca         1 0P8      -0.154000
     26 CAZ          3.9320     6.5460    -2.8660 ca         1 0P8       0.123600
     27 NAR          3.3330     6.4330    -1.5790 na         1 0P8      -0.592400
     28 H1           2.1190    -1.4020    -0.4130 h1         1 0P8       0.068700
     29 H2           3.3950    -0.2110    -0.9960 h1         1 0P8       0.068700
     30 H3           1.6070     0.1400    -1.2670 h1         1 0P8       0.068700
     31 H4           3.7400    -2.5590     3.8310 ha         1 0P8       0.197000
     32 H5           0.1430    -0.2520     4.5480 ha         1 0P8       0.165000
     33 H6          -0.2670     0.7760     1.1590 hx         1 0P8       0.113200
     34 H7          -0.7310     1.1690     2.9010 hx         1 0P8       0.113200
     35 H8           1.1740     2.7120     2.9210 hn         1 0P8       0.461300
     36 H10         -0.6440     3.1220     0.5820 hx         1 0P8       0.124200
     37 H11         -1.0630     3.4720     2.3250 hx         1 0P8       0.124200
     38 H12         -0.5410     5.5690     1.5610 hc         1 0P8       0.101700
     39 H13          1.0390     5.1060     2.3080 hc         1 0P8       0.101700
     40 H14          0.3910     4.7300    -0.7300 hx         1 0P8       0.120700
     41 H15          2.0210     4.5480     0.0800 hx         1 0P8       0.120700
     42 H16          1.9330     6.9260     0.5850 hn         1 0P8       0.466300
     43 H17          0.0610     7.1120    -2.4960 ha         1 0P8       0.183000
     44 H19          3.1930     7.1620    -6.1590 ha         1 0P8       0.183000
     45 H20          5.6510     6.7100    -6.3720 ha         1 0P8       0.176000
     46 H21          6.9980     6.1720    -4.3360 ha         1 0P8       0.170000
     47 H22          5.9300     6.0710    -2.1070 ha         1 0P8       0.152000
     48 H9           3.9080     6.8100    -0.8470 hn         1 0P8       0.432800
     49 HAP2         1.5310     2.3480     1.3370 hn         1 0P8       0.461300
     50 HAQ2         0.4460     7.0840    -0.1500 hn         1 0P8       0.466300
@<TRIPOS>BOND
     1     1     2 1   
     2     1    28 1   
     3     1    29 1   
     4     1    30 1   
     5     2     3 1   
     6     3     4 ar  
     7     3    10 ar  
     8     4     5 1   
     9     4     6 ar  
    10     6     7 ar  
    11     6    31 1   
    12     7     8 1   
    13     7     9 ar  
    14     9    10 ar  
    15     9    32 1   
    16    10    11 1   
    17    11    12 1   
    18    11    33 1   
    19    11    34 1   
    20    12    13 1   
    21    12    35 1   
    22    12    49 1   
    23    13    14 1   
    24    13    36 1   
    25    13    37 1   
    26    14    15 1   
    27    14    38 1   
    28    14    39 1   
    29    15    16 1   
    30    15    40 1   
    31    15    41 1   
    32    16    17 1   
    33    16    42 1   
    34    16    50 1   
    35    17    18 2   
    36    17    27 1   
    37    18    19 1   
    38    18    43 1   
    39    19    20 2   
    40    19    21 1   
    41    21    22 ar  
    42    21    26 ar  
    43    22    23 ar  
    44    22    44 1   
    45    23    24 ar  
    46    23    45 1   
    47    24    25 ar  
    48    24    46 1   
    49    25    26 ar  
    50    25    47 1   
    51    26    27 1   
    52    27    48 1   
@<TRIPOS>SUBSTRUCTURE
     1 0P8         1 TEMP              0 ****  ****    0 ROOT
