@<TRIPOS>MOLECULE
0P8
   48    50     1     0     0
SMALL
bcc


@<TRIPOS>ATOM
      1 CAA          0.0000     0.0000     0.0000 c3         1 0P8       0.250700
      2 OAS          1.4290     0.0000     0.0000 os         1 0P8      -0.318900
      3 CAX          2.0460     0.0000     1.2110 ca         1 0P8       0.173100
      4 CAU          2.3560     1.2010     1.8330 ca         1 0P8      -0.000900
      5 Br1          1.9270     2.8400     0.9940 br         1 0P8      -0.094100
      6 CAI          2.9780     1.1980     3.0680 ca         1 0P8      -0.050000
      7 CAT          3.2920    -0.0000     3.6830 ca         1 0P8       0.020100
      8 Br2          4.1430    -0.0020     5.3710 br         1 0P8      -0.114100
      9 CAJ          2.9830    -1.1990     3.0630 ca         1 0P8      -0.060000
     10 CAW          2.3620    -1.2010     1.8300 ca         1 0P8      -0.119300
     11 CAO          2.0210    -2.5070     1.1600 c3         1 0P8       0.210100
     12 NAP          3.0310    -2.8110     0.1370 n7         1 0P8      -0.569200
     13 CAM          2.7300    -4.0800    -0.5390 c3         1 0P8       0.148800
     14 CAL          3.8000    -4.3620    -1.5940 c3         1 0P8      -0.035400
     15 CAN          3.4880    -5.6840    -2.2980 c3         1 0P8       0.151800
     16 NAQ          4.5130    -5.9530    -3.3080 nu         1 0P8      -0.422000
     17 CAV          4.4410    -7.0920    -4.0730 cc         1 0P8       0.119000
     18 CAK          5.4150    -7.3250    -5.0150 cd         1 0P8      -0.435200
     19 CAY          5.3620    -8.4830    -5.8080 c          1 0P8       0.658900
     20 OAB          6.2160    -8.7080    -6.6510 o          1 0P8      -0.627100
     21 CBA          4.2420    -9.4200    -5.5930 ca         1 0P8      -0.193600
     22 CAH          4.1260   -10.5900    -6.3430 ca         1 0P8      -0.003000
     23 CAF          3.0690   -11.4430    -6.1150 ca         1 0P8      -0.151000
     24 CAE          2.1220   -11.1420    -5.1450 ca         1 0P8      -0.045000
     25 CAG          2.2240    -9.9890    -4.3970 ca         1 0P8      -0.173000
     26 CAZ          3.2860    -9.1160    -4.6120 ca         1 0P8       0.019600
     27 NAR          3.4120    -7.9590    -3.8700 na         1 0P8      -0.135400
     28 H1          -0.3610    -0.7280    -0.7160 h1         1 0P8      -0.004967
     29 H2          -0.3610    -0.2560     0.9890 h1         1 0P8      -0.004967
     30 H3          -0.3610     0.9840    -0.2730 h1         1 0P8      -0.004967
     31 H4           3.2200     2.1360     3.5540 ha         1 0P8       0.131000
     32 H5           3.2300    -2.1370     3.5460 ha         1 0P8       0.119000
     33 H6           2.0060    -3.2990     1.8990 h1         1 0P8       0.012700
     34 H7           1.0460    -2.4300     0.6930 h1         1 0P8       0.012700
     35 H8           3.9330    -2.8660     0.5650 hn         1 0P8       0.255800
     36 H10          1.7600    -4.0140    -1.0170 h1         1 0P8       0.007200
     37 H11          2.7200    -4.8830     0.1880 h1         1 0P8       0.007200
     38 H12          3.8100    -3.5590    -2.3210 hc         1 0P8       0.030200
     39 H13          4.7700    -4.4280    -1.1160 hc         1 0P8       0.030200
     40 H14          2.5180    -5.6180    -2.7770 h1         1 0P8       0.012200
     41 H15          3.4780    -6.4870    -1.5710 h1         1 0P8       0.012200
     42 H16          5.2560    -5.2980    -3.4550 hn         1 0P8       0.318800
     43 H17          6.2240    -6.6170    -5.1450 ha         1 0P8       0.144000
     44 H19          4.8630   -10.8270    -7.1010 ha         1 0P8       0.126000
     45 H20          2.9750   -12.3530    -6.6950 ha         1 0P8       0.108000
     46 H21          1.2950   -11.8200    -4.9750 ha         1 0P8       0.099000
     47 H22          1.4800    -9.7640    -3.6430 ha         1 0P8       0.105000
     48 H9           2.7310    -7.7530    -3.1660 hn         1 0P8       0.278800
@<TRIPOS>BOND
     1     1     2 1   
     2     1    28 1   
     3     1    29 1   
     4     1    30 1   
     5     2     3 1   
     6     3     4 ar  
     7     3    10 ar  
     8     4     5 1   
     9     4     6 ar  
    10     6     7 ar  
    11     6    31 1   
    12     7     8 1   
    13     7     9 ar  
    14     9    10 ar  
    15     9    32 1   
    16    10    11 1   
    17    11    12 1   
    18    11    33 1   
    19    11    34 1   
    20    12    13 1   
    21    12    35 1   
    22    13    14 1   
    23    13    36 1   
    24    13    37 1   
    25    14    15 1   
    26    14    38 1   
    27    14    39 1   
    28    15    16 1   
    29    15    40 1   
    30    15    41 1   
    31    16    17 1   
    32    16    42 1   
    33    17    18 2   
    34    17    27 1   
    35    18    19 1   
    36    18    43 1   
    37    19    20 2   
    38    19    21 1   
    39    21    22 ar  
    40    21    26 ar  
    41    22    23 ar  
    42    22    44 1   
    43    23    24 ar  
    44    23    45 1   
    45    24    25 ar  
    46    24    46 1   
    47    25    26 ar  
    48    25    47 1   
    49    26    27 1   
    50    27    48 1   
@<TRIPOS>SUBSTRUCTURE
     1 0P8         1 TEMP              0 ****  ****    0 ROOT
