@<TRIPOS>MOLECULE
0PA
   20    20     1     0     0
SMALL
bcc


@<TRIPOS>ATOM
      1 O2           0.0000     0.0000     0.0000 o          1 0PA      -0.906300
      2 C1           1.2080     0.0000     0.0000 c          1 0PA       0.980600
      3 O1           1.8800     0.0000     1.1630 o          1 0PA      -0.906300
      4 C2           1.9620    -0.0050    -1.3060 c3         1 0PA      -0.131400
      5 C3           0.9680    -0.0110    -2.4680 c3         1 0PA      -0.023700
      6 C4           1.7130    -0.0960    -3.8160 c3         1 0PA      -0.030900
      7 C5           0.9420     0.8000    -4.8020 c3         1 0PA      -0.029900
      8 C6          -0.2440     1.3980    -4.0180 c3         1 0PA      -0.029900
      9 C7           0.2060     1.3350    -2.5360 c3         1 0PA      -0.030900
     10 H2           2.5840     0.8800    -1.3670 hc         1 0PA       0.006700
     11 H2A          2.5860    -0.8890    -1.3600 hc         1 0PA       0.006700
     12 H3           0.2690    -0.8330    -2.3710 hc         1 0PA       0.038700
     13 H4           2.7270     0.2670    -3.7010 hc         1 0PA       0.017450
     14 H4A          1.7170    -1.1190    -4.1710 hc         1 0PA       0.017450
     15 H5           0.5770     0.2070    -5.6320 hc         1 0PA      -0.003300
     16 H5A          1.5860     1.5930    -5.1610 hc         1 0PA      -0.003300
     17 H6          -0.4150     2.4250    -4.3180 hc         1 0PA      -0.003300
     18 H6A         -1.1350     0.8000    -4.1670 hc         1 0PA      -0.003300
     19 H7          -0.6530     1.3230    -1.8760 hc         1 0PA       0.017450
     20 H7A          0.8670     2.1610    -2.3030 hc         1 0PA       0.017450
@<TRIPOS>BOND
     1     1     2 1   
     2     2     3 1   
     3     2     4 1   
     4     4     5 1   
     5     4    10 1   
     6     4    11 1   
     7     5     6 1   
     8     5     9 1   
     9     5    12 1   
    10     6     7 1   
    11     6    13 1   
    12     6    14 1   
    13     7     8 1   
    14     7    15 1   
    15     7    16 1   
    16     8     9 1   
    17     8    17 1   
    18     8    18 1   
    19     9    19 1   
    20     9    20 1   
@<TRIPOS>SUBSTRUCTURE
     1 0PA         1 TEMP              0 ****  ****    0 ROOT
