@<TRIPOS>MOLECULE
0PA
   20    20     1     0     0
SMALL
bcc


@<TRIPOS>ATOM
      1 O2          -0.0450    -0.3130     0.0820 o          1 0PA      -0.852800
      2 C1           1.2010    -0.1460    -0.0660 c          1 0PA       0.907600
      3 O1           2.0140    -0.0310     0.8960 o          1 0PA      -0.852800
      4 C2           1.7600    -0.0950    -1.4990 c3         1 0PA      -0.190400
      5 C3           1.7780     1.3230    -2.0340 c3         1 0PA      -0.041700
      6 C4           0.3700     1.9110    -2.1560 c3         1 0PA      -0.082400
      7 C5           0.0960     2.1560    -3.6320 c3         1 0PA      -0.075400
      8 C6           1.4420     2.1300    -4.3430 c3         1 0PA      -0.075400
      9 C7           2.4120     1.3960    -3.4280 c3         1 0PA      -0.082400
     10 H2           2.8030    -0.5000    -1.4950 hc         1 0PA       0.021200
     11 H2A          1.1310    -0.7440    -2.1580 hc         1 0PA       0.021200
     12 H3           2.3770     1.9500    -1.3200 hc         1 0PA       0.049700
     13 H4           0.3100     2.8740    -1.5900 hc         1 0PA       0.043700
     14 H4A         -0.3800     1.2090    -1.7010 hc         1 0PA       0.043700
     15 H5          -0.5680     1.3520    -4.0390 hc         1 0PA       0.019950
     16 H5A         -0.4240     3.1320    -3.7930 hc         1 0PA       0.019950
     17 H6           1.3630     1.6240    -5.3370 hc         1 0PA       0.019950
     18 H6A          1.7990     3.1750    -4.5290 hc         1 0PA       0.019950
     19 H7           2.6070     0.3660    -3.8210 hc         1 0PA       0.043700
     20 H7A          3.3950     1.9270    -3.3870 hc         1 0PA       0.043700
@<TRIPOS>BOND
     1     1     2 1   
     2     2     3 1   
     3     2     4 1   
     4     4     5 1   
     5     4    10 1   
     6     4    11 1   
     7     5     6 1   
     8     5     9 1   
     9     5    12 1   
    10     6     7 1   
    11     6    13 1   
    12     6    14 1   
    13     7     8 1   
    14     7    15 1   
    15     7    16 1   
    16     8     9 1   
    17     8    17 1   
    18     8    18 1   
    19     9    19 1   
    20     9    20 1   
@<TRIPOS>SUBSTRUCTURE
     1 0PA         1 TEMP              0 ****  ****    0 ROOT
