@<TRIPOS>MOLECULE
0PF
   47    50     1     0     0
SMALL
bcc


@<TRIPOS>ATOM
      1 C1          -0.1380     0.1200     0.0440 c3         1 0PF      -0.090100
      2 C2           1.3650    -0.0260     0.0220 c3         1 0PF      -0.040100
      3 C3           1.9510     0.0150     1.3900 ca         1 0PF      -0.070300
      4 C4           2.6860     1.1250     1.8200 ca         1 0PF      -0.126500
      5 C5           3.2370     1.1570     3.0980 ca         1 0PF      -0.118000
      6 C6           3.0650     0.0740     3.9720 cp         1 0PF      -0.044000
      7 C7           2.3280    -1.0380     3.5410 ca         1 0PF      -0.118000
      8 C8           1.7780    -1.0650     2.2630 ca         1 0PF      -0.126500
      9 C9           3.6430     0.1070     5.3130 cp         1 0PF      -0.070000
     10 C10          3.5860     1.2750     6.0890 ca         1 0PF      -0.062000
     11 C11          4.0910     1.2980     7.3790 ca         1 0PF      -0.179000
     12 C12          4.6980     0.1520     7.9520 ca         1 0PF       0.235600
     13 N13          5.1420     0.1570     9.2760 nh         1 0PF      -0.644900
     14 C14          5.4020     1.4310     9.8900 c3         1 0PF       0.185100
     15 S15          5.3010    -1.2240    10.2250 sy         1 0PF       1.572200
     16 O16          6.3220    -1.0150    11.1670 o          1 0PF      -0.652300
     17 O17          4.0590    -1.5410    10.7850 o          1 0PF      -0.652300
     18 C18          5.7470    -2.2910     9.0860 cc         1 0PF      -0.621800
     19 C19          6.4790    -3.5350     9.2030 cc         1 0PF       0.436200
     20 N20          6.6860    -4.0740     7.9870 nd         1 0PF      -0.514800
     21 N21          6.1320    -3.2430     7.0690 na         1 0PF       0.116400
     22 C22          6.2620    -3.5020     5.6410 c3         1 0PF       0.044300
     23 C23          5.2190    -4.4550     5.0830 c3         1 0PF      -0.118100
     24 C24          5.5270    -2.1510     7.6820 cd         1 0PF       0.120700
     25 C25          4.8290    -1.0100     7.1280 ca         1 0PF      -0.121000
     26 C26          4.2600    -1.0240     5.8500 ca         1 0PF      -0.066000
     27 H1          -0.6020    -0.6900     0.6580 hc         1 0PF       0.037367
     28 H2          -0.4330     1.1040     0.4800 hc         1 0PF       0.037367
     29 H3          -0.5430     0.0560    -0.9950 hc         1 0PF       0.037367
     30 H4           1.6380    -1.0020    -0.4640 hc         1 0PF       0.048700
     31 H5           1.8090     0.7910    -0.6090 hc         1 0PF       0.048700
     32 H6           2.8330     1.9800     1.1430 ha         1 0PF       0.135000
     33 H7           3.8170     2.0340     3.4230 ha         1 0PF       0.134000
     34 H8           2.1750    -1.8890     4.2210 ha         1 0PF       0.134000
     35 H9           1.1960    -1.9410     1.9350 ha         1 0PF       0.135000
     36 H10          3.1100     2.1790     5.6750 ha         1 0PF       0.144000
     37 H11          3.9940     2.2230     7.9680 ha         1 0PF       0.147000
     38 H12          4.4420     1.9430    10.1720 h1         1 0PF       0.056700
     39 H13          6.0190     1.2740    10.8180 h1         1 0PF       0.056700
     40 H14          5.9760     2.1020     9.1960 h1         1 0PF       0.056700
     41 H15          6.8370    -4.0050    10.1240 h4         1 0PF       0.062100
     42 H16          7.2870    -3.9400     5.4570 h1         1 0PF       0.075700
     43 H17          6.2140    -2.5070     5.1130 h1         1 0PF       0.075700
     44 H18          4.1800    -4.0840     5.2570 hc         1 0PF       0.054700
     45 H19          5.3850    -4.5520     3.9830 hc         1 0PF       0.054700
     46 H20          5.3130    -5.4650     5.5510 hc         1 0PF       0.054700
     47 H21          4.2760    -1.9480     5.2510 ha         1 0PF       0.142000
@<TRIPOS>BOND
     1     1     2 1   
     2     1    27 1   
     3     1    28 1   
     4     1    29 1   
     5     2     3 1   
     6     2    30 1   
     7     2    31 1   
     8     3     4 ar  
     9     3     8 ar  
    10     4     5 ar  
    11     4    32 1   
    12     5     6 ar  
    13     5    33 1   
    14     6     7 ar  
    15     6     9 1   
    16     7     8 ar  
    17     7    34 1   
    18     8    35 1   
    19     9    10 ar  
    20     9    26 ar  
    21    10    11 ar  
    22    10    36 1   
    23    11    12 ar  
    24    11    37 1   
    25    12    13 1   
    26    12    25 ar  
    27    13    14 1   
    28    13    15 1   
    29    14    38 1   
    30    14    39 1   
    31    14    40 1   
    32    15    16 2   
    33    15    17 2   
    34    15    18 1   
    35    18    19 1   
    36    18    24 2   
    37    19    20 2   
    38    19    41 1   
    39    20    21 1   
    40    21    22 1   
    41    21    24 1   
    42    22    23 1   
    43    22    42 1   
    44    22    43 1   
    45    23    44 1   
    46    23    45 1   
    47    23    46 1   
    48    24    25 1   
    49    25    26 ar  
    50    26    47 1   
@<TRIPOS>SUBSTRUCTURE
     1 0PF         1 TEMP              0 ****  ****    0 ROOT
