@<TRIPOS>MOLECULE
0PF
   47    50     1     0     0
SMALL
bcc


@<TRIPOS>ATOM
      1 C1           0.0000     0.0000     0.0000 c3         1 0PF       0.009900
      2 C2           1.5310     0.0000     0.0000 c3         1 0PF       0.028900
      3 C3           2.0320     0.0000     1.4210 ca         1 0PF      -0.086300
      4 C4           2.2580     1.1990     2.0720 ca         1 0PF      -0.091500
      5 C5           2.7170     1.2040     3.3740 ca         1 0PF      -0.101000
      6 C6           2.9560    -0.0010     4.0310 cp         1 0PF      -0.033000
      7 C7           2.7270    -1.2060     3.3690 ca         1 0PF      -0.101000
      8 C8           2.2620    -1.2000     2.0700 ca         1 0PF      -0.091500
      9 C9           3.4500    -0.0020     5.4290 cp         1 0PF      -0.051000
     10 C10          3.6740     1.2060     6.0930 ca         1 0PF      -0.053000
     11 C11          4.1390     1.2070     7.3890 ca         1 0PF      -0.147000
     12 C12          4.3890     0.0110     8.0560 ca         1 0PF       0.135600
     13 N13          4.8790     0.0870     9.3650 nh         1 0PF      -0.338900
     14 C14          5.6970     1.2280     9.7830 c3         1 0PF       0.253100
     15 S15          4.5220    -1.1350    10.4440 sy         1 0PF       1.070200
     16 O16          5.6160    -1.2230    11.3470 o          1 0PF      -0.573300
     17 O17          3.1750    -0.9450    10.8540 o          1 0PF      -0.573300
     18 C18          4.5600    -2.5900     9.4420 cc         1 0PF      -0.366800
     19 C19          4.7440    -3.9110     9.7750 cc         1 0PF       0.521200
     20 N20          4.6890    -4.6220     8.6680 nd         1 0PF      -0.676800
     21 N21          4.4660    -3.7530     7.5860 na         1 0PF       0.543400
     22 C22          4.3420    -4.1410     6.1790 c3         1 0PF      -0.040700
     23 C23          2.8740    -4.4240     5.8550 c3         1 0PF      -0.022100
     24 C24          4.3860    -2.4970     8.0760 cd         1 0PF      -0.088300
     25 C25          4.1570    -1.2050     7.3970 ca         1 0PF      -0.076000
     26 C26          3.6870    -1.2040     6.0850 ca         1 0PF      -0.095000
     27 H1          -0.3610     0.0320    -1.0210 hc         1 0PF       0.003367
     28 H2          -0.3610     0.8680     0.5380 hc         1 0PF       0.003367
     29 H3          -0.3610    -0.9000     0.4830 hc         1 0PF       0.003367
     30 H4           1.8920    -0.8850    -0.5110 hc         1 0PF       0.016200
     31 H5           1.8920     0.8850    -0.5110 hc         1 0PF       0.016200
     32 H6           2.0720     2.1360     1.5600 ha         1 0PF       0.107000
     33 H7           2.8930     2.1440     3.8830 ha         1 0PF       0.108000
     34 H8           2.9080    -2.1460     3.8760 ha         1 0PF       0.108000
     35 H9           2.0840    -2.1360     1.5550 ha         1 0PF       0.107000
     36 H10          3.4790     2.1440     5.5880 ha         1 0PF       0.113000
     37 H11          4.3100     2.1490     7.8960 ha         1 0PF       0.121000
     38 H12          6.4150     1.4610     9.0060 h1         1 0PF       0.013367
     39 H13          6.2230     0.9790    10.6970 h1         1 0PF       0.013367
     40 H14          5.0590     2.0860     9.9550 h1         1 0PF       0.013367
     41 H15          4.9050    -4.3000    10.7730 h4         1 0PF       0.011100
     42 H16          4.7020    -3.3370     5.5500 h1         1 0PF       0.046200
     43 H17          4.9300    -5.0330     5.9970 h1         1 0PF       0.046200
     44 H18          2.6280    -5.4370     6.1500 hc         1 0PF       0.020367
     45 H19          2.7100    -4.3080     4.7910 hc         1 0PF       0.020367
     46 H20          2.2440    -3.7280     6.3960 hc         1 0PF       0.020367
     47 H21          3.5110    -2.1430     5.5730 ha         1 0PF       0.132000
@<TRIPOS>BOND
     1     1     2 1   
     2     1    27 1   
     3     1    28 1   
     4     1    29 1   
     5     2     3 1   
     6     2    30 1   
     7     2    31 1   
     8     3     4 ar  
     9     3     8 ar  
    10     4     5 ar  
    11     4    32 1   
    12     5     6 ar  
    13     5    33 1   
    14     6     7 ar  
    15     6     9 1   
    16     7     8 ar  
    17     7    34 1   
    18     8    35 1   
    19     9    10 ar  
    20     9    26 ar  
    21    10    11 ar  
    22    10    36 1   
    23    11    12 ar  
    24    11    37 1   
    25    12    13 1   
    26    12    25 ar  
    27    13    14 1   
    28    13    15 1   
    29    14    38 1   
    30    14    39 1   
    31    14    40 1   
    32    15    16 2   
    33    15    17 2   
    34    15    18 1   
    35    18    19 1   
    36    18    24 2   
    37    19    20 2   
    38    19    41 1   
    39    20    21 1   
    40    21    22 1   
    41    21    24 1   
    42    22    23 1   
    43    22    42 1   
    44    22    43 1   
    45    23    44 1   
    46    23    45 1   
    47    23    46 1   
    48    24    25 1   
    49    25    26 ar  
    50    26    47 1   
@<TRIPOS>SUBSTRUCTURE
     1 0PF         1 TEMP              0 ****  ****    0 ROOT
