@<TRIPOS>MOLECULE
0PL
   57    60     1     0     0
SMALL
bcc


@<TRIPOS>ATOM
      1 C1           0.3790     0.9290    -0.3020 c3         1 0PL       0.070100
      2 N2           1.8000     0.5370    -0.3020 nx         1 0PL      -0.615300
      3 C3           2.3550     0.3810     1.0770 c3         1 0PL       0.177100
      4 C4           1.9220     1.4570     2.0110 ca         1 0PL      -0.168300
      5 C5           0.9270     1.1640     2.9470 ca         1 0PL      -0.106000
      6 C6           0.4070     2.1580     3.7830 ca         1 0PL      -0.028300
      7 C7           0.9800     3.4370     3.7490 ca         1 0PL      -0.080000
      8 C8           2.0080     3.7310     2.8530 ca         1 0PL      -0.115000
      9 C9           2.4590     2.7520     1.9650 ca         1 0PL       0.010400
     10 Cl1          3.6520     3.1460     0.8110 cl         1 0PL      -0.111400
     11 C11         -0.7270     1.8670     4.7180 c3         1 0PL       0.009900
     12 C13         -0.1630     1.3310     6.0340 c3         1 0PL      -0.213400
     13 C14         -0.9920     1.8850     7.2200 c          1 0PL       0.910600
     14 O15         -0.9780     3.1320     7.3980 o          1 0PL      -0.823800
     15 O16         -1.6460     1.0490     7.9040 o          1 0PL      -0.823800
     16 C17         -1.7680     0.9640     4.1190 ca         1 0PL      -0.063300
     17 C18         -2.6290     0.2460     4.9900 ca         1 0PL      -0.074000
     18 C19         -3.6080    -0.6160     4.5210 ca         1 0PL      -0.130000
     19 C20         -3.7200    -0.7740     3.1360 ca         1 0PL      -0.077200
     20 N21         -4.4940    -1.5850     2.2750 na         1 0PL       0.050900
     21 C22         -5.6760    -2.3050     2.6670 c3         1 0PL       0.043600
     22 N23         -4.1380    -1.3160     0.9880 nc         1 0PL      -0.161400
     23 N24         -3.2030    -0.4680     0.9200 nd         1 0PL      -0.265400
     24 C25         -2.8610    -0.0410     2.2360 ca         1 0PL      -0.012600
     25 C26         -1.9130     0.8560     2.7390 ca         1 0PL      -0.104000
     26 S27          2.0640    -1.0200    -1.3330 sy         1 0PL       1.467200
     27 O28          1.5830    -0.6130    -2.5680 o          1 0PL      -0.585800
     28 O29          3.4220    -1.2470    -1.1680 o          1 0PL      -0.585800
     29 C30          1.1200    -2.0690    -0.5580 ca         1 0PL      -0.518500
     30 C31         -0.2580    -2.1700    -0.8510 ca         1 0PL       0.008500
     31 C32         -1.0630    -3.1030    -0.2120 ca         1 0PL      -0.142500
     32 C33         -0.5100    -3.9660     0.7380 ca         1 0PL      -0.004000
     33 C34          0.8550    -3.8940     1.0370 ca         1 0PL      -0.142500
     34 C35          1.6560    -2.9590     0.4000 ca         1 0PL       0.008500
     35 H11         -1.2440     2.8490     4.9650 hc         1 0PL       0.117700
     36 H1           0.2430     1.9430     0.1660 hx         1 0PL       0.107367
     37 H1A         -0.2240     0.1920     0.2970 hx         1 0PL       0.107367
     38 H1B          0.0120     0.9640    -1.3640 hx         1 0PL       0.107367
     39 H3           3.4820     0.3610     0.9840 hx         1 0PL       0.100700
     40 H3A          2.0040    -0.6210     1.4650 hx         1 0PL       0.100700
     41 H5           0.5280     0.1380     3.0230 ha         1 0PL       0.149000
     42 H7           0.6130     4.2120     4.4460 ha         1 0PL       0.183000
     43 H8           2.4540     4.7380     2.8410 ha         1 0PL       0.161000
     44 H13          0.8900     1.6810     6.1680 hc         1 0PL       0.039200
     45 H13A        -0.1690     0.2150     6.0440 hc         1 0PL       0.039200
     46 H18         -2.5170     0.3880     6.0920 ha         1 0PL       0.233000
     47 H19         -4.2690    -1.1510     5.2170 ha         1 0PL       0.151000
     48 H22         -5.5700    -2.5910     3.7470 h1         1 0PL       0.059367
     49 H22A        -5.7870    -3.2280     2.0400 h1         1 0PL       0.059367
     50 H22B        -6.5910    -1.6650     2.5410 h1         1 0PL       0.059367
     51 H26         -1.3170     1.4620     2.0420 ha         1 0PL       0.126000
     52 H31         -0.7010    -1.4940    -1.6060 ha         1 0PL       0.165000
     53 H32         -2.1420    -3.1470    -0.4440 ha         1 0PL       0.175000
     54 H33         -1.1510    -4.7020     1.2550 ha         1 0PL       0.165000
     55 H34          1.2920    -4.5780     1.7830 ha         1 0PL       0.175000
     56 H35          2.7360    -2.9110     0.6320 ha         1 0PL       0.165000
     57 H21          2.3190     1.3060    -0.7380 hn         1 0PL       0.450800
@<TRIPOS>BOND
     1     1     2 1   
     2     1    36 1   
     3     1    37 1   
     4     1    38 1   
     5     2     3 1   
     6     2    26 1   
     7     2    57 1   
     8     3     4 1   
     9     3    39 1   
    10     3    40 1   
    11     4     5 ar  
    12     4     9 ar  
    13     5     6 ar  
    14     5    41 1   
    15     6     7 ar  
    16     6    11 1   
    17     7     8 ar  
    18     7    42 1   
    19     8     9 ar  
    20     8    43 1   
    21     9    10 1   
    22    11    12 1   
    23    11    16 1   
    24    11    35 1   
    25    12    13 1   
    26    12    44 1   
    27    12    45 1   
    28    13    14 1   
    29    13    15 1   
    30    16    17 ar  
    31    16    25 ar  
    32    17    18 ar  
    33    17    46 1   
    34    18    19 ar  
    35    18    47 1   
    36    19    20 1   
    37    19    24 ar  
    38    20    21 1   
    39    20    22 1   
    40    21    48 1   
    41    21    49 1   
    42    21    50 1   
    43    22    23 2   
    44    23    24 1   
    45    24    25 ar  
    46    25    51 1   
    47    26    27 2   
    48    26    28 2   
    49    26    29 1   
    50    29    30 ar  
    51    29    34 ar  
    52    30    31 ar  
    53    30    52 1   
    54    31    32 ar  
    55    31    53 1   
    56    32    33 ar  
    57    32    54 1   
    58    33    34 ar  
    59    33    55 1   
    60    34    56 1   
@<TRIPOS>SUBSTRUCTURE
     1 0PL         1 TEMP              0 ****  ****    0 ROOT
