@<TRIPOS>MOLECULE
molecule
   56    59     1     0     0
SMALL
bcc


@<TRIPOS>ATOM
      1 C1           0.0000     0.0000     0.0000 c3         1 0PL       0.232100
      2 N2           1.4650     0.0000     0.0000 n3         1 0PL      -0.809500
      3 C3           2.1980     0.0000     1.2700 c3         1 0PL       0.295100
      4 C4           2.3410    -1.4150     1.7670 ca         1 0PL      -0.118300
      5 C5           3.5600    -2.0600     1.6730 ca         1 0PL      -0.052000
      6 C6           3.6910    -3.3590     2.1290 ca         1 0PL      -0.011300
      7 C7           2.6050    -4.0130     2.6800 ca         1 0PL      -0.111000
      8 C8           1.3860    -3.3680     2.7740 ca         1 0PL      -0.130000
      9 C9           1.2550    -2.0670     2.3240 ca         1 0PL       0.032400
     10 Cl1         -0.2740    -1.2540     2.4480 cl         1 0PL      -0.156400
     11 C11          5.0210    -4.0620     2.0260 c3         1 0PL       0.027900
     12 C13          4.8290    -5.4160     1.3400 c3         1 0PL      -0.180400
     13 C14          4.3820    -5.2000    -0.0830 c          1 0PL       0.885600
     14 O15          4.2320    -4.0770    -0.5040 o          1 0PL      -0.838800
     15 O16          4.1510    -6.2530    -0.8810 o          1 0PL      -0.838800
     16 C17          5.5850    -4.2740     3.4080 ca         1 0PL      -0.083300
     17 C18          4.9630    -5.1630     4.2740 ca         1 0PL      -0.067000
     18 C19          5.4640    -5.3690     5.5400 ca         1 0PL      -0.161000
     19 C20          6.6010    -4.6820     5.9510 ca         1 0PL      -0.074200
     20 N21          7.3340    -4.6600     7.1140 na         1 0PL       0.039900
     21 C22          7.0740    -5.4330     8.3300 c3         1 0PL       0.070600
     22 N23          8.3820    -3.7500     6.9060 nc         1 0PL      -0.171400
     23 N24          8.2940    -3.2600     5.7190 nd         1 0PL      -0.217400
     24 C25          7.2310    -3.7820     5.0750 ca         1 0PL       0.017400
     25 C26          6.7040    -3.5940     3.7900 ca         1 0PL      -0.057000
     26 S27          2.2930    -0.0020    -1.4330 sy         1 0PL       1.418200
     27 O28          3.5760    -0.5460    -1.1560 o          1 0PL      -0.609800
     28 O29          1.4120    -0.5460    -2.4060 o          1 0PL      -0.609800
     29 C30          2.5540     1.6820    -1.8860 ca         1 0PL      -0.308500
     30 C31          3.6940     2.3420    -1.4660 ca         1 0PL      -0.029000
     31 C32          3.8980     3.6620    -1.8190 ca         1 0PL      -0.157500
     32 C33          2.9640     4.3220    -2.5960 ca         1 0PL      -0.088000
     33 C34          1.8250     3.6610    -3.0180 ca         1 0PL      -0.157500
     34 C35          1.6230     2.3390    -2.6670 ca         1 0PL      -0.029000
     35 H11          5.7060    -3.4560     1.4450 hc         1 0PL       0.084700
     36 H1          -0.3610    -1.0210    -0.0380 h1         1 0PL       0.040033
     37 H1A         -0.3610     0.5430    -0.8650 h1         1 0PL       0.040033
     38 H1B         -0.3610     0.4780     0.9030 h1         1 0PL       0.040033
     39 H3           1.6540     0.5860     2.0000 h1         1 0PL       0.051700
     40 H3A          3.1800     0.4310     1.1200 h1         1 0PL       0.051700
     41 H5           4.4120    -1.5490     1.2410 ha         1 0PL       0.158000
     42 H7           2.7080    -5.0310     3.0350 ha         1 0PL       0.134000
     43 H8           0.5350    -3.8790     3.2080 ha         1 0PL       0.128000
     44 H13          5.7660    -5.9590     1.3460 hc         1 0PL       0.035200
     45 H13A         4.0780    -5.9870     1.8720 hc         1 0PL       0.035200
     46 H18          4.0820    -5.7030     3.9490 ha         1 0PL       0.150000
     47 H19          4.9750    -6.0640     6.2130 ha         1 0PL       0.123000
     48 H22          7.0830    -6.4910     8.0940 h1         1 0PL       0.049700
     49 H22A         6.1050    -5.1610     8.7300 h1         1 0PL       0.049700
     50 H22B         7.8410    -5.2200     9.0650 h1         1 0PL       0.049700
     51 H26          7.2180    -2.9560     3.0820 ha         1 0PL       0.150000
     52 H31          4.4260     1.8250    -0.8570 ha         1 0PL       0.150500
     53 H32          4.7910     4.1790    -1.4890 ha         1 0PL       0.128000
     54 H33          3.1230     5.3570    -2.8720 ha         1 0PL       0.122000
     55 H34          1.0940     4.1770    -3.6280 ha         1 0PL       0.128000
     56 H35          0.7310     1.8220    -2.9980 ha         1 0PL       0.150500
@<TRIPOS>BOND
     1    36     1 1   
     2    37     1 1   
     3     1    38 1   
     4     1     2 1   
     5     3     2 1   
     6     2    26 1   
     7    39     3 1   
     8     4     3 1   
     9     3    40 1   
    10     5     4 ar  
    11     4     9 ar  
    12     6     5 ar  
    13    41     5 1   
    14    11     6 1   
    15     6     7 ar  
    16    42     7 1   
    17     7     8 ar  
    18     8    43 1   
    19     8     9 ar  
    20     9    10 1   
    21    12    11 1   
    22    16    11 1   
    23    35    11 1   
    24    13    12 1   
    25    12    44 1   
    26    12    45 1   
    27    14    13 1   
    28    15    13 1   
    29    17    16 ar  
    30    16    25 ar  
    31    18    17 ar  
    32    46    17 1   
    33    47    18 1   
    34    18    19 ar  
    35    20    19 1   
    36    19    24 ar  
    37    21    20 1   
    38    20    22 1   
    39    48    21 1   
    40    50    21 1   
    41    21    49 1   
    42    22    23 2   
    43    24    23 1   
    44    24    25 ar  
    45    25    51 1   
    46    29    26 1   
    47    26    27 2   
    48    26    28 2   
    49    34    29 ar  
    50    30    29 ar  
    51    31    30 ar  
    52    30    52 1   
    53    32    31 ar  
    54    53    31 1   
    55    54    32 1   
    56    32    33 ar  
    57    55    33 1   
    58    33    34 ar  
    59    34    56 1   
@<TRIPOS>SUBSTRUCTURE
     1 0PL         1 TEMP              0 ****  ****    0 ROOT
