@<TRIPOS>MOLECULE
0PY
   11    11     1     0     0
SMALL
bcc


@<TRIPOS>ATOM
      1 C5           0.0150    -0.0260     0.0140 ca         1 0PY       0.393200
      2 N1           1.3620    -0.0120    -0.0430 nb         1 0PY      -0.665000
      3 C4          -0.7110    -0.0290     1.2190 ca         1 0PY      -0.246300
      4 C3          -0.0020    -0.0190     2.4220 ca         1 0PY      -0.093000
      5 C2           1.3930    -0.0040     2.3830 ca         1 0PY      -0.246300
      6 C1           2.0280    -0.0020     1.1270 ca         1 0PY       0.393200
      7 H5          -0.5050    -0.0340    -0.9600 h4         1 0PY       0.021100
      8 H4          -1.8080    -0.0410     1.2060 ha         1 0PY       0.143000
      9 H3          -0.5350    -0.0210     3.3840 ha         1 0PY       0.137000
     10 H2           1.9870     0.0050     3.3060 ha         1 0PY       0.143000
     11 H1           3.1300     0.0100     1.0510 h4         1 0PY       0.021100
@<TRIPOS>BOND
     1     1     2 ar  
     2     1     3 ar  
     3     1     7 1   
     4     2     6 ar  
     5     3     4 ar  
     6     3     8 1   
     7     4     5 ar  
     8     4     9 1   
     9     5     6 ar  
    10     5    10 1   
    11     6    11 1   
@<TRIPOS>SUBSTRUCTURE
     1 0PY         1 TEMP              0 ****  ****    0 ROOT
