@<TRIPOS>MOLECULE
molecule
   11    11     1     0     0
SMALL
bcc


@<TRIPOS>ATOM
      1 C5           0.0000     0.0000     0.0000 ca         1 0PY       0.418700
      2 N1           1.3180     0.0000     0.0000 nb         1 0PY      -0.690000
      3 C4          -0.7080     0.0060     1.1870 ca         1 0PY      -0.255300
      4 C3          -0.0130     0.0060     2.3870 ca         1 0PY      -0.093000
      5 C2           1.3720     0.0000     2.3470 ca         1 0PY      -0.255300
      6 C1           2.0120     0.0000     1.1230 ca         1 0PY       0.418700
      7 H5          -0.5350    -0.0000    -0.9420 h4         1 0PY       0.022600
      8 H4          -1.7910     0.0090     1.1800 ha         1 0PY       0.137000
      9 H3          -0.5400     0.0090     3.3330 ha         1 0PY       0.137000
     10 H2           1.9470     0.0000     3.2660 ha         1 0PY       0.137000
     11 H1           3.0950    -0.0020     1.0840 h4         1 0PY       0.022600
@<TRIPOS>BOND
     1     3     1 ar  
     2     2     1 ar  
     3     1     7 1   
     4     6     2 ar  
     5     4     3 ar  
     6     3     8 1   
     7     5     4 ar  
     8     4     9 1   
     9     5     6 ar  
    10     5    10 1   
    11     6    11 1   
@<TRIPOS>SUBSTRUCTURE
     1 0PY         1 TEMP              0 ****  ****    0 ROOT
