@<TRIPOS>MOLECULE
0PZ
   19    19     1     0     0
SMALL
bcc


@<TRIPOS>ATOM
      1 C1           0.4160     0.9600    -0.3240 c3         1 0PZ      -0.093100
      2 C2           1.3310    -0.2100    -0.0690 c3         1 0PZ      -0.079400
      3 C3           1.7540    -0.2750     1.3840 c3         1 0PZ      -0.077400
      4 C4           2.6780    -1.4490     1.6310 c3         1 0PZ      -0.075400
      5 C5           3.0940    -1.5230     3.0690 cx         1 0PZ       0.063100
      6 O            2.2880    -2.3550     3.9260 op         1 0PZ      -0.407600
      7 C6           3.6260    -2.7880     3.6450 cx         1 0PZ       0.049400
      8 H1           0.1150     0.9890    -1.3990 hc         1 0PZ       0.033700
      9 H2          -0.5060     0.8820     0.3000 hc         1 0PZ       0.033700
     10 H3           0.9270     1.9220    -0.0750 hc         1 0PZ       0.033700
     11 H4           2.2410    -0.1270    -0.7200 hc         1 0PZ       0.038700
     12 H5           0.8100    -1.1630    -0.3490 hc         1 0PZ       0.038700
     13 H6           0.8470    -0.3710     2.0380 hc         1 0PZ       0.046200
     14 H7           2.2700     0.6790     1.6680 hc         1 0PZ       0.046200
     15 H8           3.6010    -1.3460     1.0000 hc         1 0PZ       0.053700
     16 H9           2.1650    -2.4020     1.3330 hc         1 0PZ       0.053700
     17 H10          3.3670    -0.5510     3.5260 h1         1 0PZ       0.089700
     18 H11          3.6920    -3.7030     3.0290 h1         1 0PZ       0.076200
     19 H12          4.3070    -2.7690     4.5150 h1         1 0PZ       0.076200
@<TRIPOS>BOND
     1     1     2 1   
     2     1     8 1   
     3     1     9 1   
     4     1    10 1   
     5     2     3 1   
     6     2    11 1   
     7     2    12 1   
     8     3     4 1   
     9     3    13 1   
    10     3    14 1   
    11     4     5 1   
    12     4    15 1   
    13     4    16 1   
    14     5     6 1   
    15     5     7 1   
    16     5    17 1   
    17     6     7 1   
    18     7    18 1   
    19     7    19 1   
@<TRIPOS>SUBSTRUCTURE
     1 0PZ         1 TEMP              0 ****  ****    0 ROOT
