@<TRIPOS>MOLECULE
molecule
   19    19     1     0     0
SMALL
bcc


@<TRIPOS>ATOM
      1 C1           0.0000     0.0000     0.0000 c3         1 0PZ      -0.091100
      2 C2           1.5300     0.0000     0.0000 c3         1 0PZ      -0.084400
      3 C3           2.0400     0.0000     1.4430 c3         1 0PZ      -0.079400
      4 C4           3.5700     0.0000     1.4430 c3         1 0PZ      -0.066400
      5 C5           4.0810     0.0000     2.8850 cx         1 0PZ       0.040100
      6 O            4.8320    -1.1330     3.3250 op         1 0PZ      -0.385600
      7 C6           5.5930     0.0570     3.1060 cx         1 0PZ       0.033400
      8 H1          -0.3610    -0.0260    -1.0210 hc         1 0PZ       0.033700
      9 H2          -0.3610    -0.8710     0.5330 hc         1 0PZ       0.033700
     10 H3          -0.3610     0.8970     0.4880 hc         1 0PZ       0.033700
     11 H4           1.8910     0.8850    -0.5110 hc         1 0PZ       0.040700
     12 H5           1.8910    -0.8850    -0.5110 hc         1 0PZ       0.040700
     13 H6           1.6780     0.8840     1.9530 hc         1 0PZ       0.045700
     14 H7           1.6790    -0.8850     1.9530 hc         1 0PZ       0.045700
     15 H8           3.9320    -0.8840     0.9320 hc         1 0PZ       0.055200
     16 H9           3.9310     0.8850     0.9320 hc         1 0PZ       0.055200
     17 H10          3.4900     0.4820     3.6550 h1         1 0PZ       0.090700
     18 H11          6.1990     0.0680     2.2080 h1         1 0PZ       0.080200
     19 H12          5.9190     0.5780     3.9980 h1         1 0PZ       0.080200
@<TRIPOS>BOND
     1     2     3 1
     2     2     1 1
     3     3     4 1
     4     4     5 1
     5     5     6 1
     6     5     7 1
     7     6     7 1
     8     1     8 1
     9     1     9 1
    10     1    10 1
    11     2    11 1
    12     2    12 1
    13     3    13 1
    14     3    14 1
    15     4    15 1
    16     4    16 1
    17     5    17 1
    18     7    18 1
    19     7    19 1
@<TRIPOS>SUBSTRUCTURE
     1 0PZ         1 TEMP              0 ****  ****    0 ROOT
