@<TRIPOS>MOLECULE
0Q2
   38    41     1     0     0
SMALL
bcc


@<TRIPOS>ATOM
      1 C1           0.0000     0.0000     0.0000 c3         1 0Q2      -0.039400
      2 C2           1.5070     0.0000     0.0000 cc         1 0Q2       0.220800
      3 N3           2.2520     0.0000     1.0670 nd         1 0Q2      -0.498100
      4 C4           3.5590    -0.0010     0.7100 ca         1 0Q2      -0.052900
      5 C5           4.7670    -0.0010     1.4090 ca         1 0Q2       0.465200
      6 N6           5.9150    -0.0010     0.7720 nb         1 0Q2      -0.541000
      7 C7           5.9980    -0.0010    -0.5630 ca         1 0Q2       0.513300
      8 C8           4.8310    -0.0010    -1.3220 ca         1 0Q2      -0.243600
      9 C9           3.5990    -0.0000    -0.7010 ca         1 0Q2      -0.214200
     10 N10          2.2870    -0.0060    -1.1160 na         1 0Q2       0.324700
     11 C11          1.8140    -0.0130    -2.5030 c3         1 0Q2      -0.035000
     12 C13          0.3900    -0.5700    -2.5540 c3         1 0Q2      -0.084400
     13 C14          0.3810    -1.9980    -2.0060 c3         1 0Q2      -0.047400
     14 C15          1.3030    -2.8760    -2.8520 c3         1 0Q2      -0.062400
     15 C16          2.7270    -2.3200    -2.8010 c3         1 0Q2       0.186100
     16 C18          2.7370    -0.8920    -3.3510 c3         1 0Q2      -0.140400
     17 O19          3.5890    -3.1410    -3.5930 oh         1 0Q2      -0.589800
     18 C20          5.2890    -0.0010    -2.7630 c3         1 0Q2      -0.106400
     19 C21          6.8000    -0.0010    -2.6400 c2         1 0Q2       0.388200
     20 N22          7.0880    -0.0010    -1.3890 ne         1 0Q2      -0.507700
     21 H1          -0.3610    -0.8830    -0.5120 hc         1 0Q2       0.034033
     22 H2          -0.3610    -0.0020     1.0210 hc         1 0Q2       0.034033
     23 H3          -0.3610     0.8860    -0.5090 hc         1 0Q2       0.034033
     24 H4           4.7570    -0.0020     2.4920 h4         1 0Q2      -0.010900
     25 H6           1.8190     0.9970    -2.8960 h1         1 0Q2       0.039700
     26 H7          -0.2610     0.0510    -1.9520 hc         1 0Q2       0.046700
     27 H8           0.0430    -0.5770    -3.5800 hc         1 0Q2       0.046700
     28 H9          -0.6280    -2.3920    -2.0460 hc         1 0Q2       0.033700
     29 H10          0.7310    -1.9920    -0.9810 hc         1 0Q2       0.033700
     30 H11          0.9550    -2.8790    -3.8780 hc         1 0Q2       0.025200
     31 H12          1.2970    -3.8860    -2.4610 hc         1 0Q2       0.025200
     32 H13          3.0730    -2.3120    -1.7740 h1         1 0Q2       0.017700
     33 H14          2.3860    -0.8980    -4.3760 hc         1 0Q2       0.071700
     34 H15          3.7450    -0.4970    -3.3110 hc         1 0Q2       0.071700
     35 H16          3.5880    -4.0200    -3.2500 ho         1 0Q2       0.399000
     36 H17          4.9480     0.8930    -3.2710 hc         1 0Q2       0.073700
     37 H18          7.4000     0.5750    -3.3350 h4         1 0Q2       0.011800
     38 H5           4.9480    -0.8940    -3.2720 hc         1 0Q2       0.073700
@<TRIPOS>BOND
     1     1     2 1   
     2     1    21 1   
     3     1    22 1   
     4     1    23 1   
     5     2     3 2   
     6     2    10 1   
     7     3     4 1   
     8     4     5 ar  
     9     4     9 ar  
    10     5     6 ar  
    11     5    24 1   
    12     6     7 ar  
    13     7     8 ar  
    14     7    20 1   
    15     8     9 ar  
    16     8    18 1   
    17     9    10 1   
    18    10    11 1   
    19    11    12 1   
    20    11    16 1   
    21    11    25 1   
    22    12    13 1   
    23    12    26 1   
    24    12    27 1   
    25    13    14 1   
    26    13    28 1   
    27    13    29 1   
    28    14    15 1   
    29    14    30 1   
    30    14    31 1   
    31    15    16 1   
    32    15    17 1   
    33    15    32 1   
    34    16    33 1   
    35    16    34 1   
    36    17    35 1   
    37    18    19 1   
    38    18    36 1   
    39    18    38 1   
    40    19    20 2   
    41    19    37 1   
@<TRIPOS>SUBSTRUCTURE
     1 0Q2         1 TEMP              0 ****  ****    0 ROOT
