@<TRIPOS>MOLECULE
molecule
   38    41     1     0     0
SMALL
bcc


@<TRIPOS>ATOM
      1 C1           0.0000     0.0000     0.0000 c3         1 0Q2      -0.117400
      2 C2           1.5070     0.0000     0.0000 cc         1 0Q2       0.424800
      3 N3           2.2520     0.0000     1.0670 nd         1 0Q2      -0.589100
      4 C4           3.5590    -0.0010     0.7100 ca         1 0Q2      -0.029900
      5 C5           4.7670    -0.0010     1.4090 ca         1 0Q2       0.492200
      6 N6           5.9150    -0.0010     0.7720 nb         1 0Q2      -0.663000
      7 C7           5.9980    -0.0010    -0.5630 ca         1 0Q2       0.607300
      8 C8           4.8310    -0.0010    -1.3220 ca         1 0Q2      -0.254600
      9 C9           3.5990    -0.0000    -0.7010 ca         1 0Q2      -0.048200
     10 N10          2.2870    -0.0060    -1.1160 na         1 0Q2      -0.144300
     11 C11          1.8140    -0.0130    -2.5030 c3         1 0Q2       0.065000
     12 C13          0.3900    -0.5700    -2.5540 c3         1 0Q2      -0.115400
     13 C14          0.3810    -1.9980    -2.0060 c3         1 0Q2      -0.090400
     14 C15          1.3030    -2.8760    -2.8520 c3         1 0Q2      -0.113400
     15 C16          2.7270    -2.3200    -2.8010 c3         1 0Q2       0.146100
     16 C18          2.7370    -0.8920    -3.3510 c3         1 0Q2      -0.139400
     17 O19          3.5890    -3.1410    -3.5930 oh         1 0Q2      -0.610800
     18 C20          5.2890    -0.0010    -2.7630 c3         1 0Q2      -0.180400
     19 C21          6.8000    -0.0010    -2.6400 c2         1 0Q2       0.426200
     20 N22          7.0880    -0.0010    -1.3890 ne         1 0Q2      -0.614700
     21 H1          -0.3610    -0.8830    -0.5120 hc         1 0Q2       0.066700
     22 H2          -0.3610    -0.0020     1.0210 hc         1 0Q2       0.066700
     23 H3          -0.3610     0.8860    -0.5090 hc         1 0Q2       0.066700
     24 H4           4.7570    -0.0020     2.4920 h4         1 0Q2       0.042100
     25 H6           1.8190     0.9970    -2.8960 h1         1 0Q2       0.067700
     26 H7          -0.2610     0.0510    -1.9520 hc         1 0Q2       0.064700
     27 H8           0.0430    -0.5770    -3.5800 hc         1 0Q2       0.064700
     28 H9          -0.6280    -2.3920    -2.0460 hc         1 0Q2       0.056200
     29 H10          0.7310    -1.9920    -0.9810 hc         1 0Q2       0.056200
     30 H11          0.9550    -2.8790    -3.8780 hc         1 0Q2       0.051700
     31 H12          1.2970    -3.8860    -2.4610 hc         1 0Q2       0.051700
     32 H13          3.0730    -2.3120    -1.7740 h1         1 0Q2       0.048700
     33 H14          2.3860    -0.8980    -4.3760 hc         1 0Q2       0.085700
     34 H15          3.7450    -0.4970    -3.3110 hc         1 0Q2       0.085700
     35 H16          3.5880    -4.0200    -3.2500 ho         1 0Q2       0.410000
     36 H17          4.9480     0.8930    -3.2710 hc         1 0Q2       0.101700
     37 H18          7.4000     0.5750    -3.3350 h4         1 0Q2       0.061800
     38 H5           4.9480    -0.8940    -3.2720 hc         1 0Q2       0.101700
@<TRIPOS>BOND
     1     3     2 2   
     2     3     4 1   
     3     1     2 1   
     4     5     4 ar  
     5     5     6 ar  
     6     2    10 1   
     7     4     9 ar  
     8     6     7 ar  
     9    12    13 1   
    10    12    11 1   
    11    10     9 1   
    12    10    11 1   
    13     9     8 ar  
    14    13    14 1   
    15     7     8 ar  
    16     7    20 1   
    17     8    18 1   
    18    11    16 1   
    19    20    19 2   
    20    18    19 1   
    21    14    15 1   
    22    16    15 1   
    23    15    17 1   
    24     1    21 1   
    25     1    22 1   
    26     1    23 1   
    27     5    24 1   
    28    11    25 1   
    29    12    26 1   
    30    12    27 1   
    31    13    28 1   
    32    13    29 1   
    33    14    30 1   
    34    14    31 1   
    35    15    32 1   
    36    16    33 1   
    37    16    34 1   
    38    17    35 1   
    39    18    36 1   
    40    19    37 1   
    41    18    38 1   
@<TRIPOS>SUBSTRUCTURE
     1 0Q2         1 TEMP              0 ****  ****    0 ROOT
