@<TRIPOS>MOLECULE
0Q2
   38    41     1     0     0
SMALL
bcc


@<TRIPOS>ATOM
      1 C1           0.0310     0.0530    -0.1460 c3         1 0Q2      -0.117400
      2 C2           1.5160     0.0570    -0.0390 cc         1 0Q2       0.423800
      3 N3           2.1980     0.0570     1.1220 nd         1 0Q2      -0.552100
      4 C4           3.5550     0.0580     0.7660 ca         1 0Q2      -0.051900
      5 C5           4.7110     0.0550     1.5730 ca         1 0Q2       0.457200
      6 N6           5.9520     0.0530     1.0720 nb         1 0Q2      -0.630000
      7 C7           6.0680     0.0610    -0.2830 ca         1 0Q2       0.556300
      8 C8           4.9660     0.0720    -1.2210 ca         1 0Q2      -0.243600
      9 C9           3.6820     0.0630    -0.6940 ca         1 0Q2      -0.004200
     10 N10          2.3710     0.0690    -1.1860 na         1 0Q2      -0.167300
     11 C11          1.8890    -0.0070    -2.5450 c3         1 0Q2       0.059000
     12 C13          2.2800    -1.3050    -3.2720 c3         1 0Q2      -0.091400
     13 C14          1.5580    -1.3780    -4.6020 c3         1 0Q2      -0.077400
     14 C15          1.8640    -0.1820    -5.4760 c3         1 0Q2      -0.074400
     15 C16          1.5830     1.1360    -4.7620 c3         1 0Q2       0.142100
     16 C18          2.2840     1.2020    -3.4070 c3         1 0Q2      -0.126400
     17 O19          0.1710     1.2450    -4.6230 oh         1 0Q2      -0.598800
     18 C20          5.5580     0.0930    -2.5960 c3         1 0Q2      -0.127400
     19 C21          7.0490     0.0760    -2.2680 c2         1 0Q2       0.390200
     20 N22          7.3340     0.0610    -0.9940 ne         1 0Q2      -0.575700
     21 H1          -0.4280     0.0700     0.8740 hc         1 0Q2       0.065367
     22 H2          -0.3200     0.9530    -0.7100 hc         1 0Q2       0.065367
     23 H3          -0.3150    -0.8700    -0.6760 hc         1 0Q2       0.065367
     24 H4           4.6310     0.0520     2.6760 h4         1 0Q2       0.042100
     25 H6           0.7540     0.0050    -2.4860 h1         1 0Q2       0.080700
     26 H7           2.0020    -2.1940    -2.6480 hc         1 0Q2       0.053200
     27 H8           3.3870    -1.3370    -3.4340 hc         1 0Q2       0.053200
     28 H9           1.8600    -2.3170    -5.1350 hc         1 0Q2       0.054200
     29 H10          0.4510    -1.4260    -4.4260 hc         1 0Q2       0.054200
     30 H11          2.9430    -0.1910    -5.7780 hc         1 0Q2       0.054700
     31 H12          1.2400    -0.2310    -6.4060 hc         1 0Q2       0.054700
     32 H13          1.9540     1.9910    -5.3990 h1         1 0Q2       0.037700
     33 H14          3.3890     1.2150    -3.5750 hc         1 0Q2       0.057200
     34 H15          2.0000     2.1530    -2.8870 hc         1 0Q2       0.057200
     35 H16         -0.0030     2.1040    -4.2210 ho         1 0Q2       0.401000
     36 H17          5.3030     1.0240    -3.1590 hc         1 0Q2       0.084200
     37 H18          7.8170     0.0790    -3.0490 h4         1 0Q2       0.044800
     38 H5           5.2810    -0.8020    -3.2040 hc         1 0Q2       0.084200
@<TRIPOS>BOND
     1     1     2 1   
     2     1    21 1   
     3     1    22 1   
     4     1    23 1   
     5     2     3 2   
     6     2    10 1   
     7     3     4 1   
     8     4     5 ar  
     9     4     9 ar  
    10     5     6 ar  
    11     5    24 1   
    12     6     7 ar  
    13     7     8 ar  
    14     7    20 1   
    15     8     9 ar  
    16     8    18 1   
    17     9    10 1   
    18    10    11 1   
    19    11    12 1   
    20    11    16 1   
    21    11    25 1   
    22    12    13 1   
    23    12    26 1   
    24    12    27 1   
    25    13    14 1   
    26    13    28 1   
    27    13    29 1   
    28    14    15 1   
    29    14    30 1   
    30    14    31 1   
    31    15    16 1   
    32    15    17 1   
    33    15    32 1   
    34    16    33 1   
    35    16    34 1   
    36    17    35 1   
    37    18    19 1   
    38    18    36 1   
    39    18    38 1   
    40    19    20 2   
    41    19    37 1   
@<TRIPOS>SUBSTRUCTURE
     1 0Q2         1 TEMP              0 ****  ****    0 ROOT
