@<TRIPOS>MOLECULE
0Q5
   91    95     1     0     0
SMALL
bcc


@<TRIPOS>ATOM
      1 O4           0.0000     0.0000     0.0000 o          1 0Q5      -0.602100
      2 C27          1.2160     0.0000     0.0000 c          1 0Q5       0.605700
      3 N3           1.8890     0.0000     1.1680 n          1 0Q5      -0.160800
      4 C36          1.1870     0.1060     2.4570 c3         1 0Q5       0.051000
      5 C35          1.4210    -1.1930     3.2270 c3         1 0Q5       0.013900
      6 C30          2.8770    -1.5730     3.2070 ca         1 0Q5      -0.075300
      7 C31          3.3270    -2.4550     4.1830 ca         1 0Q5      -0.103000
      8 C32          4.6480    -2.8510     4.2160 ca         1 0Q5      -0.096000
      9 C33          5.5340    -2.3710     3.2710 ca         1 0Q5      -0.098000
     10 C34          5.0910    -1.4920     2.3020 ca         1 0Q5      -0.089000
     11 C29          3.7640    -1.0880     2.2710 ca         1 0Q5      -0.105300
     12 C28          3.3520    -0.1120     1.2050 c3         1 0Q5       0.085300
     13 C            1.9540    -0.0050    -1.2770 ca         1 0Q5      -0.141600
     14 C5           1.7590     1.0310    -2.2110 ca         1 0Q5       0.105000
     15 C6           0.8090     2.1270    -1.9160 cc         1 0Q5      -0.272300
     16 C8           1.1030     3.3140    -1.2830 cd         1 0Q5      -0.236600
     17 C9           2.4530     3.7390    -0.7640 c3         1 0Q5       0.043900
     18 C10          3.2080     4.4930    -1.8610 c3         1 0Q5      -0.030400
     19 C11          4.5250     5.0290    -1.2960 c3         1 0Q5      -0.028400
     20 C12          5.2790     5.7830    -2.3930 c3         1 0Q5       0.006900
     21 N1          -0.0390     4.0270    -1.2140 na         1 0Q5       0.640300
     22 C13         -0.1790     5.3010    -0.6440 ca         1 0Q5      -0.149200
     23 C18          0.3970     5.5770     0.5890 ca         1 0Q5      -0.092000
     24 C17          0.2620     6.8330     1.1470 ca         1 0Q5      -0.090500
     25 C16         -0.4440     7.8160     0.4780 ca         1 0Q5      -0.091000
     26 C15         -1.0190     7.5440    -0.7500 ca         1 0Q5      -0.090500
     27 C14         -0.8870     6.2890    -1.3120 ca         1 0Q5      -0.092000
     28 N           -1.0620     3.2800    -1.8090 nd         1 0Q5      -0.646800
     29 C7          -0.5650     2.1510    -2.2350 cc         1 0Q5       0.396600
     30 C19         -1.3290     1.0600    -2.9420 c3         1 0Q5       0.210100
     31 O           -1.8550     0.1460    -1.9770 oh         1 0Q5      -0.550800
     32 C4           2.4650     1.0240    -3.4150 ca         1 0Q5      -0.115000
     33 C3           3.3490     0.0070    -3.6920 ca         1 0Q5      -0.064000
     34 C2           3.5470    -1.0270    -2.7700 ca         1 0Q5      -0.187600
     35 C1           2.8500    -1.0310    -1.5630 ca         1 0Q5      -0.020000
     36 C20          4.4980    -2.1150    -3.0760 c          1 0Q5       0.672700
     37 O1           4.6710    -3.0140    -2.2750 o          1 0Q5      -0.615100
     38 N2           5.1730    -2.1120    -4.2420 ns         1 0Q5      -0.320300
     39 S            6.2390    -3.3310    -4.5850 s6         1 0Q5       0.943600
     40 O2           6.7670    -2.9870    -5.8580 o          1 0Q5      -0.571800
     41 O3           7.0750    -3.4000    -3.4380 o          1 0Q5      -0.571800
     42 C21          5.2030    -4.8170    -4.7070 c3         1 0Q5       0.030400
     43 C22          6.0830    -6.0270    -5.0250 c3         1 0Q5      -0.020400
     44 Si1          5.0200    -7.5510    -5.1500 Si         1 0Q5      -0.159000
     45 C26          6.0910    -9.0250    -5.5370 c3         1 0Q5      -0.016433
     46 C25          4.1410    -7.8300    -3.5310 c3         1 0Q5      -0.016433
     47 C24          3.7640    -7.3230    -6.5070 c3         1 0Q5      -0.016433
     48 H1           1.6040     0.9320     3.0200 h1         1 0Q5       0.037700
     49 H2           0.1260     0.2230     2.2740 h1         1 0Q5       0.037700
     50 H3           0.8530    -1.9830     2.7500 hc         1 0Q5       0.031200
     51 H4           1.1190    -1.0420     4.2560 hc         1 0Q5       0.031200
     52 H5           2.6340    -2.8330     4.9250 ha         1 0Q5       0.105000
     53 H6           4.9890    -3.5400     4.9790 ha         1 0Q5       0.102000
     54 H7           6.5730    -2.6780     3.2920 ha         1 0Q5       0.105000
     55 H8           5.7850    -1.1150     1.5610 ha         1 0Q5       0.108000
     56 H9           3.7800     0.8590     1.4220 h1         1 0Q5       0.036200
     57 H10          3.7090    -0.4610     0.2430 h1         1 0Q5       0.036200
     58 H11          2.3220     4.3860     0.0950 hc         1 0Q5       0.029700
     59 H12          3.0200     2.8630    -0.4730 hc         1 0Q5       0.029700
     60 H13          2.6020     5.3200    -2.2130 hc         1 0Q5       0.020200
     61 H14          3.4150     3.8210    -2.6840 hc         1 0Q5       0.020200
     62 H15          5.1300     4.2030    -0.9440 hc         1 0Q5       0.013200
     63 H16          4.3180     5.7020    -0.4730 hc         1 0Q5       0.013200
     64 H17          5.5110     5.1040    -3.2040 hc         1 0Q5       0.001700
     65 H18          6.1980     6.1880    -1.9870 hc         1 0Q5       0.001700
     66 H19          4.6610     6.5920    -2.7650 hc         1 0Q5       0.001700
     67 H20          0.9510     4.8070     1.1140 ha         1 0Q5       0.122500
     68 H21          0.7110     7.0500     2.1090 ha         1 0Q5       0.107500
     69 H22         -0.5480     8.8000     0.9170 ha         1 0Q5       0.106000
     70 H23         -1.5720     8.3150    -1.2720 ha         1 0Q5       0.107500
     71 H24         -1.3380     6.0760    -2.2740 ha         1 0Q5       0.122500
     72 H25         -2.1430     1.4970    -3.5070 h1         1 0Q5      -0.009300
     73 H26         -0.6640     0.5310    -3.6150 h1         1 0Q5      -0.009300
     74 H27         -2.6720    -0.2050    -2.2900 ho         1 0Q5       0.377000
     75 H28          2.3160     1.8210    -4.1330 ha         1 0Q5       0.116000
     76 H29          3.8930     0.0060    -4.6280 ha         1 0Q5       0.102000
     77 H30          3.0040    -1.8320    -0.8490 ha         1 0Q5       0.140000
     78 H31          5.0410    -1.3650    -4.8940 hn         1 0Q5       0.238500
     79 H32          4.6930    -4.9790    -3.7650 h1         1 0Q5       0.075700
     80 H33          4.4730    -4.6840    -5.4950 h1         1 0Q5       0.075700
     81 H34          6.5940    -5.8650    -5.9670 hc         1 0Q5       0.045700
     82 H35          6.8140    -6.1600    -4.2360 hc         1 0Q5       0.045700
     83 H36          6.8410    -8.7450    -6.2670 hc         1 0Q5       0.022700
     84 H37          5.4770    -9.8230    -5.9380 hc         1 0Q5       0.022700
     85 H38          6.5780    -9.3650    -4.6310 hc         1 0Q5       0.022700
     86 H39          4.8700    -7.9980    -2.7480 hc         1 0Q5       0.022700
     87 H40          3.4960    -8.6970    -3.6150 hc         1 0Q5       0.022700
     88 H41          3.5450    -6.9590    -3.2880 hc         1 0Q5       0.022700
     89 H42          4.1280    -6.5910    -7.2170 hc         1 0Q5       0.022700
     90 H43          2.8300    -6.9790    -6.0800 hc         1 0Q5       0.022700
     91 H44          3.6030    -8.2680    -7.0120 hc         1 0Q5       0.022700
@<TRIPOS>BOND
     1     1     2 2   
     2     2     3 1   
     3     2    13 1   
     4     3     4 1   
     5     3    12 1   
     6     4     5 1   
     7     4    48 1   
     8     4    49 1   
     9     5     6 1   
    10     5    50 1   
    11     5    51 1   
    12     6     7 ar  
    13     6    11 ar  
    14     7     8 ar  
    15     7    52 1   
    16     8     9 ar  
    17     8    53 1   
    18     9    10 ar  
    19     9    54 1   
    20    10    11 ar  
    21    10    55 1   
    22    11    12 1   
    23    12    56 1   
    24    12    57 1   
    25    13    14 ar  
    26    13    35 ar  
    27    14    15 1   
    28    14    32 ar  
    29    15    16 2   
    30    15    29 1   
    31    16    17 1   
    32    16    21 1   
    33    17    18 1   
    34    17    58 1   
    35    17    59 1   
    36    18    19 1   
    37    18    60 1   
    38    18    61 1   
    39    19    20 1   
    40    19    62 1   
    41    19    63 1   
    42    20    64 1   
    43    20    65 1   
    44    20    66 1   
    45    21    22 1   
    46    21    28 1   
    47    22    23 ar  
    48    22    27 ar  
    49    23    24 ar  
    50    23    67 1   
    51    24    25 ar  
    52    24    68 1   
    53    25    26 ar  
    54    25    69 1   
    55    26    27 ar  
    56    26    70 1   
    57    27    71 1   
    58    28    29 2   
    59    29    30 1   
    60    30    31 1   
    61    30    72 1   
    62    30    73 1   
    63    31    74 1   
    64    32    33 ar  
    65    32    75 1   
    66    33    34 ar  
    67    33    76 1   
    68    34    35 ar  
    69    34    36 1   
    70    35    77 1   
    71    36    37 2   
    72    36    38 1   
    73    38    39 1   
    74    38    78 1   
    75    39    40 2   
    76    39    41 2   
    77    39    42 1   
    78    42    43 1   
    79    42    79 1   
    80    42    80 1   
    81    43    44 1   
    82    43    81 1   
    83    43    82 1   
    84    44    45 1   
    85    44    46 1   
    86    44    47 1   
    87    45    83 1   
    88    45    84 1   
    89    45    85 1   
    90    46    86 1   
    91    46    87 1   
    92    46    88 1   
    93    47    89 1   
    94    47    90 1   
    95    47    91 1   
@<TRIPOS>SUBSTRUCTURE
     1 0Q5         1 TEMP              0 ****  ****    0 ROOT
