@<TRIPOS>MOLECULE
0Q5
   92    96     1     0     0
SMALL
bcc


@<TRIPOS>ATOM
      1 O4           1.1930    -0.3450     0.0840 o          1 0Q5      -0.567100
      2 C27          2.3730    -0.7100    -0.0790 c          1 0Q5       0.666700
      3 N3           3.2800    -0.6490     0.9670 n          1 0Q5      -0.471800
      4 C36          4.6250    -1.1590     0.8910 c3         1 0Q5       0.096000
      5 C35          4.9990    -2.1120     2.0290 c3         1 0Q5      -0.054100
      6 C30          4.5910    -1.5820     3.3540 ca         1 0Q5      -0.083300
      7 C31          5.2350    -2.0240     4.5160 ca         1 0Q5      -0.122000
      8 C32          4.8410    -1.5440     5.7630 ca         1 0Q5      -0.120000
      9 C33          3.8020    -0.6170     5.8570 ca         1 0Q5      -0.119000
     10 C34          3.1580    -0.1710     4.7060 ca         1 0Q5      -0.121000
     11 C29          3.5490    -0.6520     3.4500 ca         1 0Q5      -0.096300
     12 C28          2.8250    -0.1340     2.2450 c3         1 0Q5       0.135300
     13 C            2.8460    -1.1070    -1.4460 ca         1 0Q5      -0.138600
     14 C5           2.2120    -2.1240    -2.1850 ca         1 0Q5       0.155000
     15 C6           1.1880    -2.9870    -1.6640 cc         1 0Q5      -0.270300
     16 C8           1.1980    -3.8400    -0.5350 cd         1 0Q5      -0.015600
     17 C9           2.3080    -4.1280     0.3980 c3         1 0Q5      -0.030100
     18 C10          2.8610    -5.5290     0.2070 c3         1 0Q5      -0.082400
     19 C11          4.0600    -5.7630     1.1010 c3         1 0Q5      -0.079400
     20 C12          4.5590    -7.1810     0.9890 c3         1 0Q5      -0.095100
     21 N1          -0.0580    -4.4680    -0.5160 na         1 0Q5       0.177300
     22 C13         -0.5180    -5.3750     0.4950 ca         1 0Q5      -0.009200
     23 C18         -0.9580    -6.6620     0.1340 ca         1 0Q5      -0.113000
     24 C17         -1.4090    -7.5340     1.1230 ca         1 0Q5      -0.121500
     25 C16         -1.4310    -7.1380     2.4600 ca         1 0Q5      -0.110000
     26 C15         -1.0070    -5.8570     2.8140 ca         1 0Q5      -0.121500
     27 C14         -0.5570    -4.9670     1.8420 ca         1 0Q5      -0.113000
     28 N           -0.8360    -4.0820    -1.5410 nd         1 0Q5      -0.471800
     29 C7          -0.1200    -3.1900    -2.2730 cc         1 0Q5       0.295600
     30 C19         -0.6260    -2.5200    -3.5070 c3         1 0Q5       0.101100
     31 O           -0.2250    -3.2170    -4.6720 oh         1 0Q5      -0.610800
     32 C4           2.5760    -2.2960    -3.5430 ca         1 0Q5      -0.128000
     33 C3           3.5410    -1.5050    -4.1380 ca         1 0Q5      -0.082000
     34 C2           4.1830    -0.5020    -3.3880 ca         1 0Q5      -0.228600
     35 C1           3.8340    -0.3180    -2.0410 ca         1 0Q5      -0.014000
     36 C20          5.2110     0.3680    -3.9410 c          1 0Q5       0.598700
     37 O1           6.1420     0.9100    -3.3470 o          1 0Q5      -0.489100
     38 N2           5.1320     0.7010    -5.3990 ny         1 0Q5      -0.609700
     39 S            5.0500     2.5910    -5.8240 s6         1 0Q5       1.373900
     40 O2           4.6580     2.4930    -7.1430 o          1 0Q5      -0.553300
     41 O3           4.1960     3.0720    -4.8590 o          1 0Q5      -0.553300
     42 C21          6.6540     2.9610    -5.6120 c3         1 0Q5      -0.346600
     43 C22          6.8210     4.4390    -5.8470 c3         1 0Q5      -0.294400
     44 Si1          8.6300     4.8870    -5.6120 Si         1 0Q5       0.677000
     45 C26          9.5940     3.8630    -6.7680 c3         1 0Q5      -0.316433
     46 C25          9.0680     4.5040    -3.8900 c3         1 0Q5      -0.316433
     47 C24          8.8060     6.6530    -5.9760 c3         1 0Q5      -0.316433
     48 H1           4.7790    -1.6980    -0.0860 h1         1 0Q5       0.046700
     49 H2           5.3330    -0.2780     0.9180 h1         1 0Q5       0.046700
     50 H3           4.5070    -3.1130     1.8710 hc         1 0Q5       0.062700
     51 H4           6.1090    -2.2740     1.9950 hc         1 0Q5       0.062700
     52 H5           6.0550    -2.7530     4.4400 ha         1 0Q5       0.135000
     53 H6           5.3500    -1.8950     6.6730 ha         1 0Q5       0.141000
     54 H7           3.4910    -0.2370     6.8420 ha         1 0Q5       0.142000
     55 H8           2.3390     0.5610     4.7790 ha         1 0Q5       0.140000
     56 H9           1.7220    -0.3660     2.3580 h1         1 0Q5       0.072700
     57 H10          2.9320     0.9920     2.2200 h1         1 0Q5       0.072700
     58 H11          1.9620    -4.0030     1.4610 hc         1 0Q5       0.065700
     59 H12          3.1200    -3.3730     0.2150 hc         1 0Q5       0.065700
     60 H13          3.1550    -5.6800    -0.8650 hc         1 0Q5       0.053200
     61 H14          2.0610    -6.2820     0.4420 hc         1 0Q5       0.053200
     62 H15          3.7830    -5.5430     2.1660 hc         1 0Q5       0.038700
     63 H16          4.8810    -5.0520     0.8190 hc         1 0Q5       0.038700
     64 H17          4.8520    -7.4140    -0.0640 hc         1 0Q5       0.039367
     65 H18          3.7670    -7.9040     1.3000 hc         1 0Q5       0.039367
     66 H19          5.4500    -7.3300     1.6450 hc         1 0Q5       0.039367
     67 H20         -0.9590    -6.9820    -0.9200 ha         1 0Q5       0.151000
     68 H21         -1.7540    -8.5400     0.8410 ha         1 0Q5       0.147500
     69 H22         -1.7900    -7.8330     3.2350 ha         1 0Q5       0.147000
     70 H23         -1.0360    -5.5390     3.8680 ha         1 0Q5       0.147500
     71 H24         -0.2460    -3.9510     2.1330 ha         1 0Q5       0.151000
     72 H25         -1.7440    -2.4110    -3.4780 h1         1 0Q5       0.069700
     73 H26         -0.1510    -1.5050    -3.6050 h1         1 0Q5       0.069700
     74 H27         -0.6970    -4.0590    -4.6830 ho         1 0Q5       0.416000
     75 H28          2.0470    -3.0680    -4.1340 ha         1 0Q5       0.191000
     76 H29          3.8090    -1.7000    -5.1880 ha         1 0Q5       0.130000
     77 H30          4.3320     0.4740    -1.4530 ha         1 0Q5       0.168000
     78 H31          5.9430     0.2940    -5.8610 hn         1 0Q5       0.455800
     79 H32          7.3550     2.4200    -6.3120 h1         1 0Q5       0.164200
     80 H33          7.0470     2.7270    -4.5740 h1         1 0Q5       0.164200
     81 H34          6.2060     5.0310    -5.1240 hc         1 0Q5       0.086200
     82 H35          6.5110     4.7170    -6.8850 hc         1 0Q5       0.086200
     83 H36          9.7380     2.8230    -6.3930 hc         1 0Q5       0.061256
     84 H37          9.1140     3.7940    -7.7710 hc         1 0Q5       0.061256
     85 H38         10.6130     4.2900    -6.9290 hc         1 0Q5       0.061256
     86 H39          8.3100     4.8900    -3.1680 hc         1 0Q5       0.061256
     87 H40          9.1700     3.4090    -3.7110 hc         1 0Q5       0.061256
     88 H41         10.0440     4.9690    -3.6090 hc         1 0Q5       0.061256
     89 H42          8.4860     6.9010    -7.0160 hc         1 0Q5       0.061256
     90 H43          8.1990     7.2860    -5.2870 hc         1 0Q5       0.061256
     91 H44          9.8650     6.9890    -5.8750 hc         1 0Q5       0.061256
     92 H231         4.3030     0.2600    -5.7970 hn         1 0Q5       0.455800
@<TRIPOS>BOND
     1     1     2 2   
     2     2     3 1   
     3     2    13 1   
     4     3     4 1   
     5     3    12 1   
     6     4     5 1   
     7     4    48 1   
     8     4    49 1   
     9     5     6 1   
    10     5    50 1   
    11     5    51 1   
    12     6     7 ar  
    13     6    11 ar  
    14     7     8 ar  
    15     7    52 1   
    16     8     9 ar  
    17     8    53 1   
    18     9    10 ar  
    19     9    54 1   
    20    10    11 ar  
    21    10    55 1   
    22    11    12 1   
    23    12    56 1   
    24    12    57 1   
    25    13    14 ar  
    26    13    35 ar  
    27    14    15 1   
    28    14    32 ar  
    29    15    16 2   
    30    15    29 1   
    31    16    17 1   
    32    16    21 1   
    33    17    18 1   
    34    17    58 1   
    35    17    59 1   
    36    18    19 1   
    37    18    60 1   
    38    18    61 1   
    39    19    20 1   
    40    19    62 1   
    41    19    63 1   
    42    20    64 1   
    43    20    65 1   
    44    20    66 1   
    45    21    22 1   
    46    21    28 1   
    47    22    23 ar  
    48    22    27 ar  
    49    23    24 ar  
    50    23    67 1   
    51    24    25 ar  
    52    24    68 1   
    53    25    26 ar  
    54    25    69 1   
    55    26    27 ar  
    56    26    70 1   
    57    27    71 1   
    58    28    29 2   
    59    29    30 1   
    60    30    31 1   
    61    30    72 1   
    62    30    73 1   
    63    31    74 1   
    64    32    33 ar  
    65    32    75 1   
    66    33    34 ar  
    67    33    76 1   
    68    34    35 ar  
    69    34    36 1   
    70    35    77 1   
    71    36    37 2   
    72    36    38 1   
    73    38    39 1   
    74    38    78 1   
    75    38    92 1   
    76    39    40 2   
    77    39    41 2   
    78    39    42 1   
    79    42    43 1   
    80    42    79 1   
    81    42    80 1   
    82    43    44 1   
    83    43    81 1   
    84    43    82 1   
    85    44    45 1   
    86    44    46 1   
    87    44    47 1   
    88    45    83 1   
    89    45    84 1   
    90    45    85 1   
    91    46    86 1   
    92    46    87 1   
    93    46    88 1   
    94    47    89 1   
    95    47    90 1   
    96    47    91 1   
@<TRIPOS>SUBSTRUCTURE
     1 0Q5         1 TEMP              0 ****  ****    0 ROOT
