@<TRIPOS>MOLECULE
0QA
   29    29     1     0     0
SMALL
bcc


@<TRIPOS>ATOM
      1 O2           0.8700     0.7140     2.4230 o          1 0QA       0.036300
      2 N3           1.9370     0.5340     2.0970 n2         1 0QA       0.284700
      3 N2           2.3010    -0.8460     1.6480 nx         1 0QA      -0.669200
      4 C10          1.2520    -1.8930     1.7840 c3         1 0QA       0.068100
      5 C9           2.8440    -0.8430     0.2350 c3         1 0QA       0.138800
      6 C8           4.2140    -0.1900     0.0940 c3         1 0QA      -0.097400
      7 C7           5.3610    -1.1770     0.0560 c3         1 0QA      -0.201400
      8 C6           5.7180    -1.7860     1.3860 c          1 0QA       0.622700
      9 O1           4.9430    -1.7030     2.3580 o          1 0QA      -0.622100
     10 C5           7.0020    -2.4780     1.4840 ca         1 0QA      -0.326900
     11 C1           7.4890    -2.8730     2.7440 ca         1 0QA      -0.021000
     12 C2           8.7150    -3.5300     2.8220 ca         1 0QA      -0.253300
     13 C3           9.4220    -3.7790     1.6300 ca         1 0QA       0.452200
     14 N1           8.9700    -3.4150     0.4120 nb         1 0QA      -0.658000
     15 C4           7.7890    -2.7800     0.3470 ca         1 0QA       0.448200
     16 H1           1.7080    -2.9000     1.5900 hx         1 0QA       0.106700
     17 H2           0.8330    -1.8780     2.8270 hx         1 0QA       0.106700
     18 H3           0.4260    -1.7050     1.0480 hx         1 0QA       0.106700
     19 H4           2.9000    -1.9220    -0.0920 hx         1 0QA       0.098700
     20 H5           2.0920    -0.3170    -0.4200 hx         1 0QA       0.098700
     21 H6           4.2070     0.3710    -0.8830 hc         1 0QA       0.089700
     22 H7           4.4060     0.5660     0.9010 hc         1 0QA       0.089700
     23 H8           6.2680    -0.6330    -0.3340 hc         1 0QA       0.097200
     24 H9           5.1400    -2.0110    -0.6640 hc         1 0QA       0.097200
     25 H10          6.8990    -2.6590     3.6500 ha         1 0QA       0.162000
     26 H11          9.1270    -3.8490     3.7900 ha         1 0QA       0.167000
     27 H12         10.4010    -4.2960     1.6430 h4         1 0QA       0.047100
     28 H13          7.4590    -2.5070    -0.6720 h4         1 0QA       0.025100
     29 H21          3.1030    -1.1010     2.2730 hn         1 0QA       0.506800
@<TRIPOS>BOND
     1     1     2 2   
     2     2     3 1   
     3     3     4 1   
     4     3     5 1   
     5     3    29 1   
     6     4    16 1   
     7     4    17 1   
     8     4    18 1   
     9     5     6 1   
    10     5    19 1   
    11     5    20 1   
    12     6     7 1   
    13     6    21 1   
    14     6    22 1   
    15     7     8 1   
    16     7    23 1   
    17     7    24 1   
    18     8     9 2   
    19     8    10 1   
    20    10    11 ar  
    21    10    15 ar  
    22    11    12 ar  
    23    11    25 1   
    24    12    13 ar  
    25    12    26 1   
    26    13    14 ar  
    27    13    27 1   
    28    14    15 ar  
    29    15    28 1   
@<TRIPOS>SUBSTRUCTURE
     1 0QA         1 TEMP              0 ****  ****    0 ROOT
