@<TRIPOS>MOLECULE
0QA
   28    28     1     0     0
SMALL
bcc


@<TRIPOS>ATOM
      1 O2           0.0000     0.0000     0.0000 o          1 0QA      -0.345700
      2 N3           1.2170     0.0000     0.0000 n2         1 0QA       0.164700
      3 N2           1.8630     0.0000     1.1170 n3         1 0QA      -0.312400
      4 C10          1.1290     0.0010     2.3860 c3         1 0QA       0.171100
      5 C9           3.3270    -0.0000     1.1180 c3         1 0QA       0.189800
      6 C8           3.8380     1.4360     1.2440 c3         1 0QA      -0.045400
      7 C7           5.3680     1.4350     1.2440 c3         1 0QA      -0.117400
      8 C6           5.8700     2.8500     1.3680 c          1 0QA       0.633700
      9 O1           5.0840     3.7690     1.4470 o          1 0QA      -0.552100
     10 C5           7.3180     3.1180     1.3920 ca         1 0QA      -0.312900
     11 C1           7.8000     4.4290     1.5120 ca         1 0QA      -0.001000
     12 C2           9.1680     4.6250     1.5300 ca         1 0QA      -0.236300
     13 C3          10.0110     3.5320     1.4300 ca         1 0QA       0.434200
     14 N1           9.5310     2.3090     1.3180 nb         1 0QA      -0.592000
     15 C4           8.2370     2.0680     1.3010 ca         1 0QA       0.439200
     16 H1           0.6030     0.9420     2.4990 h1         1 0QA       0.020700
     17 H2           1.8250    -0.1230     3.2070 h1         1 0QA       0.020700
     18 H3           0.4150    -0.8140     2.3920 h1         1 0QA       0.020700
     19 H4           3.6890    -0.4330     0.1930 h1         1 0QA       0.029200
     20 H5           3.6870    -0.5860     1.9560 h1         1 0QA       0.029200
     21 H6           3.4770     1.8680     2.1690 hc         1 0QA       0.037700
     22 H7           3.4770     2.0220     0.4060 hc         1 0QA       0.037700
     23 H8           5.7290     1.0030     0.3180 hc         1 0QA       0.038700
     24 H9           5.7280     0.8490     2.0810 hc         1 0QA       0.038700
     25 H10          7.1170     5.2670     1.5890 ha         1 0QA       0.128000
     26 H11          9.5770     5.6250     1.6220 ha         1 0QA       0.119000
     27 H12         11.0840     3.6840     1.4420 h4         1 0QA      -0.018900
     28 H13          7.8810     1.0490     1.2070 h4         1 0QA      -0.016900
@<TRIPOS>BOND
     1     1     2 2   
     2     2     3 1   
     3     3     4 1   
     4     3     5 1   
     5     4    16 1   
     6     4    17 1   
     7     4    18 1   
     8     5     6 1   
     9     5    19 1   
    10     5    20 1   
    11     6     7 1   
    12     6    21 1   
    13     6    22 1   
    14     7     8 1   
    15     7    23 1   
    16     7    24 1   
    17     8     9 2   
    18     8    10 1   
    19    10    11 ar  
    20    10    15 ar  
    21    11    12 ar  
    22    11    25 1   
    23    12    13 ar  
    24    12    26 1   
    25    13    14 ar  
    26    13    27 1   
    27    14    15 ar  
    28    15    28 1   
@<TRIPOS>SUBSTRUCTURE
     1 0QA         1 TEMP              0 ****  ****    0 ROOT
