@<TRIPOS>MOLECULE
0QE
    5     4     1     0     0
SMALL
bcc


@<TRIPOS>ATOM
      1 C1          -0.0640    -0.0000     0.0010 c3         1 0QE       0.014300
      2 Cl1          1.6770     0.0000    -0.0080 cl         1 0QE      -0.190400
      3 H           -0.4070     0.0010     1.0580 h1         1 0QE       0.058700
      4 HA          -0.4150     0.9140    -0.5260 h1         1 0QE       0.058700
      5 HB          -0.4150    -0.9140    -0.5250 h1         1 0QE       0.058700
@<TRIPOS>BOND
     1     1     2 1   
     2     1     3 1   
     3     1     4 1   
     4     1     5 1   
@<TRIPOS>SUBSTRUCTURE
     1 0QE         1 TEMP              0 ****  ****    0 ROOT
