@<TRIPOS>MOLECULE
molecule
    5     4     1     0     0
SMALL
bcc


@<TRIPOS>ATOM
      1 C1           0.0000     0.0000     0.0000 c3         1 0QE       0.038300
      2 Cl1          1.8030     0.0000     0.0000 cl         1 0QE      -0.207400
      3 H           -0.3610     0.0000     1.0210 h1         1 0QE       0.056700
      4 HA          -0.3610     0.8850    -0.5110 h1         1 0QE       0.056700
      5 HB          -0.3610    -0.8850    -0.5110 h1         1 0QE       0.056700
@<TRIPOS>BOND
     1     1     2 1
     2     1     3 1
     3     1     4 1
     4     1     5 1
@<TRIPOS>SUBSTRUCTURE
     1 0QE         1 TEMP              0 ****  ****    0 ROOT
