@<TRIPOS>MOLECULE
0QJ
   73    76     1     0     0
SMALL
bcc


@<TRIPOS>ATOM
      1 C2           0.0000     0.0000     0.0000 ca         1 0QJ       0.688900
      2 C4           1.9940     0.0000     1.1430 ca         1 0QJ       0.275800
      3 C5           1.2850     0.0000     2.3570 ca         1 0QJ      -0.246200
      4 C6          -0.1190    -0.0060     2.3060 ca         1 0QJ       0.590200
      5 C8           3.3990     0.0090     2.8430 cc         1 0QJ       0.246700
      6 CBA         13.6830   -11.9210    -3.2650 c3         1 0QJ       0.003567
      7 CBB         15.0690   -12.2170    -1.2070 c3         1 0QJ       0.003567
      8 CBC         15.7100   -10.5060    -2.9090 c3         1 0QJ       0.003567
      9 CAY         13.6730   -10.2370    -1.4440 ca         1 0QJ      -0.091300
     10 CBD         13.9640    -8.8860    -1.4570 ca         1 0QJ      -0.089500
     11 CBE         13.1760    -8.0010    -0.7480 ca         1 0QJ      -0.115500
     12 CAX         12.5890   -10.7070    -0.7260 ca         1 0QJ      -0.089500
     13 CAW         11.7960    -9.8270    -0.0150 ca         1 0QJ      -0.115500
     14 CAV         12.0890    -8.4700    -0.0220 ca         1 0QJ      -0.078400
     15 NAU         11.2880    -7.5760     0.6980 ns         1 0QJ      -0.053100
     16 CAT         11.0860    -6.3280     0.2320 c          1 0QJ       0.565100
     17 OBF         11.5220    -6.0070    -0.8570 o          1 0QJ      -0.694100
     18 NAS         10.4020    -5.4340     0.9730 ns         1 0QJ      -0.220900
     19 CAR         10.1820    -4.0770     0.4680 c3         1 0QJ       0.066000
     20 CAQ          9.3840    -3.2730     1.4960 c3         1 0QJ      -0.049400
     21 CAP          9.1540    -1.8550     0.9670 c3         1 0QJ       0.150800
     22 NAN          8.3890    -1.0820     1.9530 n3         1 0QJ      -0.530600
     23 CAO          9.1690    -0.8750     3.1810 c3         1 0QJ       0.178100
     24 CAM          7.9450     0.1990     1.3900 c3         1 0QJ       0.143800
     25 CAL          6.7670    -0.0400     0.4440 c3         1 0QJ       0.160100
     26 OBG          5.6350    -0.5260     1.1860 os         1 0QJ      -0.382600
     27 CAJ          6.3450     1.2880    -0.2150 c3         1 0QJ       0.126100
     28 OAK          6.4690     1.2020    -1.6360 oh         1 0QJ      -0.549800
     29 CAH          4.8620     1.4590     0.1910 c3         1 0QJ       0.125100
     30 OAI          4.0870     1.9500    -0.9050 oh         1 0QJ      -0.536800
     31 CAG          4.4540     0.0080     0.5510 c3         1 0QJ       0.148800
     32 N9           3.3230     0.0060     1.4820 na         1 0QJ       0.212000
     33 N7           2.2010     0.0060     3.3540 nd         1 0QJ      -0.500100
     34 N3           1.3150     0.0000     0.0000 nb         1 0QJ      -0.670000
     35 N1          -0.7100    -0.0000     1.1150 nb         1 0QJ      -0.747000
     36 N6          -0.8700    -0.0060     3.4680 nv         1 0QJ      -0.483500
     37 H1          -0.5210     0.0050    -0.9500 h5         1 0QJ      -0.004900
     38 H2           4.3190     0.0140     3.4150 h5         1 0QJ       0.039800
     39 H3          14.3200   -12.5340    -3.8910 hc         1 0QJ       0.006811
     40 H4          12.9540   -12.5490    -2.7660 hc         1 0QJ       0.006811
     41 H5          13.1700   -11.1900    -3.8780 hc         1 0QJ       0.006811
     42 H6          15.5250   -11.6940    -0.3750 hc         1 0QJ       0.006811
     43 H7          14.2510   -12.8280    -0.8440 hc         1 0QJ       0.006811
     44 H8          15.8070   -12.8490    -1.6850 hc         1 0QJ       0.006811
     45 H9          15.3330    -9.7880    -3.6280 hc         1 0QJ       0.006811
     46 H10         16.3890   -11.1900    -3.4040 hc         1 0QJ       0.006811
     47 H11         16.2360    -9.9830    -2.1200 hc         1 0QJ       0.006811
     48 H13         13.4060    -6.9430    -0.7580 ha         1 0QJ       0.122000
     49 H14         12.3610   -11.7660    -0.7210 ha         1 0QJ       0.113000
     50 H15         10.9480   -10.1960     0.5490 ha         1 0QJ       0.122000
     51 H16         10.9040    -7.8480     1.5810 hn         1 0QJ       0.158500
     52 H17         10.0370    -5.7010     1.8660 hn         1 0QJ       0.167500
     53 H18          9.6280    -4.1230    -0.4630 h1         1 0QJ       0.026200
     54 H19         11.1370    -3.5960     0.2960 h1         1 0QJ       0.026200
     55 H20          9.9380    -3.2260     2.4260 hc         1 0QJ       0.026200
     56 H21          8.4290    -3.7530     1.6680 hc         1 0QJ       0.026200
     57 H22          8.6010    -1.9020     0.0370 h1         1 0QJ       0.015700
     58 H23         10.1100    -1.3750     0.7940 h1         1 0QJ       0.015700
     59 H25          9.0850    -1.7500     3.8140 h1         1 0QJ       0.004367
     60 H26          8.7880    -0.0090     3.7090 h1         1 0QJ       0.004367
     61 H27         10.2090    -0.7130     2.9250 h1         1 0QJ       0.004367
     62 H28          7.6370     0.8590     2.1920 h1         1 0QJ       0.017700
     63 H29          8.7620     0.6540     0.8420 h1         1 0QJ       0.017700
     64 H30          7.0410    -0.7580    -0.3190 h1         1 0QJ       0.049700
     65 H31          6.9390     2.1070     0.1740 h1         1 0QJ       0.012700
     66 H32          7.0190     1.9020    -1.9470 ho         1 0QJ       0.390000
     67 H33          4.7740     2.1070     1.0550 h1         1 0QJ       0.020700
     68 H34          3.9540     2.8780    -0.8050 ho         1 0QJ       0.388000
     69 H35          4.2200    -0.5530    -0.3460 h2         1 0QJ       0.074700
     70 H36         -1.8700    -0.0070     3.4170 hn         1 0QJ       0.275800
     71 H37         -0.4140    -0.0080     4.3590 hn         1 0QJ       0.275800
     72 H12         14.8120    -8.5210    -2.0240 ha         1 0QJ       0.113000
     73 CAZ         14.5360   -11.2010    -2.2190 c3         1 0QJ      -0.010700
@<TRIPOS>BOND
     1     1    34 ar  
     2     1    35 ar  
     3     1    37 1   
     4     2     3 ar  
     5     2    32 1   
     6     2    34 ar  
     7     3     4 ar  
     8     3    33 1   
     9     4    35 ar  
    10     4    36 1   
    11     5    32 1   
    12     5    33 2   
    13     5    38 1   
    14     6    39 1   
    15     6    40 1   
    16     6    41 1   
    17     6    73 1   
    18     7    42 1   
    19     7    43 1   
    20     7    44 1   
    21     7    73 1   
    22     8    45 1   
    23     8    46 1   
    24     8    47 1   
    25     8    73 1   
    26     9    10 ar  
    27     9    12 ar  
    28     9    73 1   
    29    10    11 ar  
    30    10    72 1   
    31    11    14 ar  
    32    11    48 1   
    33    12    13 ar  
    34    12    49 1   
    35    13    14 ar  
    36    13    50 1   
    37    14    15 1   
    38    15    16 1   
    39    15    51 1   
    40    16    17 2   
    41    16    18 1   
    42    18    19 1   
    43    18    52 1   
    44    19    20 1   
    45    19    53 1   
    46    19    54 1   
    47    20    21 1   
    48    20    55 1   
    49    20    56 1   
    50    21    22 1   
    51    21    57 1   
    52    21    58 1   
    53    22    23 1   
    54    22    24 1   
    55    23    59 1   
    56    23    60 1   
    57    23    61 1   
    58    24    25 1   
    59    24    62 1   
    60    24    63 1   
    61    25    26 1   
    62    25    27 1   
    63    25    64 1   
    64    26    31 1   
    65    27    28 1   
    66    27    29 1   
    67    27    65 1   
    68    28    66 1   
    69    29    30 1   
    70    29    31 1   
    71    29    67 1   
    72    30    68 1   
    73    31    32 1   
    74    31    69 1   
    75    36    70 1   
    76    36    71 1   
@<TRIPOS>SUBSTRUCTURE
     1 0QJ         1 TEMP              0 ****  ****    0 ROOT
