@<TRIPOS>MOLECULE
molecule
   73    76     1     0     0
SMALL
bcc


@<TRIPOS>ATOM
      1 C2           0.0000     0.0000     0.0000 ca         1 0QJ       0.739900
      2 C4           1.9940     0.0000     1.1430 ca         1 0QJ       0.480800
      3 C5           1.2850     0.0000     2.3570 ca         1 0QJ      -0.213200
      4 C6          -0.1190    -0.0060     2.3060 ca         1 0QJ       0.787200
      5 C8           3.3990     0.0090     2.8430 cc         1 0QJ       0.426700
      6 CBA         13.6830   -11.9210    -3.2650 c3         1 0QJ      -0.081100
      7 CBB         15.0690   -12.2170    -1.2070 c3         1 0QJ      -0.081100
      8 CBC         15.7100   -10.5060    -2.9090 c3         1 0QJ      -0.081100
      9 CAY         13.6730   -10.2370    -1.4440 ca         1 0QJ      -0.087300
     10 CBD         13.9640    -8.8860    -1.4570 ca         1 0QJ      -0.111500
     11 CBE         13.1760    -8.0010    -0.7480 ca         1 0QJ      -0.143000
     12 CAX         12.5890   -10.7070    -0.7260 ca         1 0QJ      -0.111500
     13 CAW         11.7960    -9.8270    -0.0150 ca         1 0QJ      -0.143000
     14 CAV         12.0890    -8.4700    -0.0220 ca         1 0QJ       0.068600
     15 NAU         11.2880    -7.5760     0.6980 ns         1 0QJ      -0.492100
     16 CAT         11.0860    -6.3280     0.2320 c          1 0QJ       0.781100
     17 OBF         11.5220    -6.0070    -0.8570 o          1 0QJ      -0.645100
     18 NAS         10.4020    -5.4340     0.9730 ns         1 0QJ      -0.602900
     19 CAR         10.1820    -4.0770     0.4680 c3         1 0QJ       0.129000
     20 CAQ          9.3840    -3.2730     1.4960 c3         1 0QJ      -0.101400
     21 CAP          9.1540    -1.8550     0.9670 c3         1 0QJ       0.163800
     22 NAN          8.3890    -1.0820     1.9530 n3         1 0QJ      -0.720600
     23 CAO          9.1690    -0.8750     3.1810 c3         1 0QJ       0.151100
     24 CAM          7.9450     0.1990     1.3900 c3         1 0QJ       0.161800
     25 CAL          6.7670    -0.0400     0.4440 c3         1 0QJ       0.131100
     26 OBG          5.6350    -0.5260     1.1860 os         1 0QJ      -0.396600
     27 CAJ          6.3450     1.2880    -0.2150 c3         1 0QJ       0.084100
     28 OAK          6.4690     1.2020    -1.6360 oh         1 0QJ      -0.570800
     29 CAH          4.8620     1.4590     0.1910 c3         1 0QJ       0.090100
     30 OAI          4.0870     1.9500    -0.9050 oh         1 0QJ      -0.556800
     31 CAG          4.4540     0.0080     0.5510 c3         1 0QJ       0.258800
     32 N9           3.3230     0.0060     1.4820 na         1 0QJ      -0.250000
     33 N7           2.2010     0.0060     3.3540 nd         1 0QJ      -0.591100
     34 N3           1.3150     0.0000     0.0000 nb         1 0QJ      -0.783000
     35 N1          -0.7100    -0.0000     1.1150 nb         1 0QJ      -0.838000
     36 N6          -0.8700    -0.0060     3.4680 nv         1 0QJ      -0.985500
     37 H1          -0.5210     0.0050    -0.9500 h5         1 0QJ       0.062100
     38 H2           4.3190     0.0140     3.4150 h5         1 0QJ       0.087800
     39 H3          14.3200   -12.5340    -3.8910 hc         1 0QJ       0.036144
     40 H4          12.9540   -12.5490    -2.7660 hc         1 0QJ       0.036144
     41 H5          13.1700   -11.1900    -3.8780 hc         1 0QJ       0.036144
     42 H6          15.5250   -11.6940    -0.3750 hc         1 0QJ       0.036144
     43 H7          14.2510   -12.8280    -0.8440 hc         1 0QJ       0.036144
     44 H8          15.8070   -12.8490    -1.6850 hc         1 0QJ       0.036144
     45 H9          15.3330    -9.7880    -3.6280 hc         1 0QJ       0.036144
     46 H10         16.3890   -11.1900    -3.4040 hc         1 0QJ       0.036144
     47 H11         16.2360    -9.9830    -2.1200 hc         1 0QJ       0.036144
     48 H13         13.4060    -6.9430    -0.7580 ha         1 0QJ       0.144500
     49 H14         12.3610   -11.7660    -0.7210 ha         1 0QJ       0.135000
     50 H15         10.9480   -10.1960     0.5490 ha         1 0QJ       0.144500
     51 H16         10.9040    -7.8480     1.5810 hn         1 0QJ       0.315500
     52 H17         10.0370    -5.7010     1.8660 hn         1 0QJ       0.307500
     53 H18          9.6280    -4.1230    -0.4630 h1         1 0QJ       0.053700
     54 H19         11.1370    -3.5960     0.2960 h1         1 0QJ       0.053700
     55 H20          9.9380    -3.2260     2.4260 hc         1 0QJ       0.055200
     56 H21          8.4290    -3.7530     1.6680 hc         1 0QJ       0.055200
     57 H22          8.6010    -1.9020     0.0370 h1         1 0QJ       0.039200
     58 H23         10.1100    -1.3750     0.7940 h1         1 0QJ       0.039200
     59 H25          9.0850    -1.7500     3.8140 h1         1 0QJ       0.034700
     60 H26          8.7880    -0.0090     3.7090 h1         1 0QJ       0.034700
     61 H27         10.2090    -0.7130     2.9250 h1         1 0QJ       0.034700
     62 H28          7.6370     0.8590     2.1920 h1         1 0QJ       0.043200
     63 H29          8.7620     0.6540     0.8420 h1         1 0QJ       0.043200
     64 H30          7.0410    -0.7580    -0.3190 h1         1 0QJ       0.080700
     65 H31          6.9390     2.1070     0.1740 h1         1 0QJ       0.045700
     66 H32          7.0190     1.9020    -1.9470 ho         1 0QJ       0.405000
     67 H33          4.7740     2.1070     1.0550 h1         1 0QJ       0.056700
     68 H34          3.9540     2.8780    -0.8050 ho         1 0QJ       0.404000
     69 H35          4.2200    -0.5530    -0.3460 h2         1 0QJ       0.115700
     70 H36         -1.8700    -0.0070     3.4170 hn         1 0QJ       0.449800
     71 H37         -0.4140    -0.0080     4.3590 hn         1 0QJ       0.449800
     72 H12         14.8120    -8.5210    -2.0240 ha         1 0QJ       0.135000
     73 CAZ         14.5360   -11.2010    -2.2190 c3         1 0QJ      -0.021700
@<TRIPOS>BOND
     1     7    73 1
     2     8    73 1
     3    73     6 1
     4    73     9 1
     5     9    12 ar
     6     9    10 ar
     7    12    13 ar
     8    10    11 ar
     9    13    14 ar
    10    11    14 ar
    11    14    15 1
    12    15    16 1
    13    16    17 2
    14    16    18 1
    15    18    19 1
    16    19    20 1
    17    20    21 1
    18    23    22 1
    19    21    22 1
    20    22    24 1
    21    24    25 1
    22    25    26 1
    23    25    27 1
    24    26    31 1
    25    27    28 1
    26    27    29 1
    27    31    32 1
    28    31    29 1
    29    32     2 1
    30    32     5 1
    31    34     2 ar
    32    34     1 ar
    33     2     3 ar
    34     5    33 2
    35     1    35 ar
    36    33     3 1
    37     3     4 ar
    38    35     4 ar
    39     4    36 1
    40    29    30 1
    41     1    37 1
    42     5    38 1
    43     6    39 1
    44     6    40 1
    45     6    41 1
    46     7    42 1
    47     7    43 1
    48     7    44 1
    49     8    45 1
    50     8    46 1
    51     8    47 1
    52    10    72 1
    53    11    48 1
    54    12    49 1
    55    13    50 1
    56    15    51 1
    57    18    52 1
    58    19    53 1
    59    19    54 1
    60    20    55 1
    61    20    56 1
    62    21    57 1
    63    21    58 1
    64    23    59 1
    65    23    60 1
    66    23    61 1
    67    24    62 1
    68    24    63 1
    69    25    64 1
    70    27    65 1
    71    28    66 1
    72    29    67 1
    73    30    68 1
    74    31    69 1
    75    36    70 1
    76    36    71 1
@<TRIPOS>SUBSTRUCTURE
     1 0QJ         1 TEMP              0 ****  ****    0 ROOT
