@<TRIPOS>MOLECULE
0QJ
   75    78     1     0     0
SMALL
bcc


@<TRIPOS>ATOM
      1 C2           3.9050    -2.7920     2.3760 ca         1 0QJ       0.706900
      2 C4           3.6370    -0.9070     1.1200 ca         1 0QJ       0.495800
      3 C5           2.3120    -0.7340     1.7060 ca         1 0QJ      -0.232200
      4 C6           1.8590    -1.6960     2.6740 ca         1 0QJ       0.793200
      5 C8           2.5760     0.9210     0.3170 cc         1 0QJ       0.420700
      6 CBA          8.0170   -14.2690     1.0680 c3         1 0QJ      -0.092100
      7 CBB          9.3000   -14.6270    -1.0380 c3         1 0QJ      -0.092100
      8 CBC         10.3620   -13.5010     0.8910 c3         1 0QJ      -0.092100
      9 CAY          8.5380   -12.3600    -0.4150 ca         1 0QJ      -0.007300
     10 CBD          9.2070   -11.1470    -0.2150 ca         1 0QJ      -0.107500
     11 CBE          8.7080    -9.9510    -0.7290 ca         1 0QJ      -0.115000
     12 CAX          7.3380   -12.3470    -1.1480 ca         1 0QJ      -0.107500
     13 CAW          6.8180   -11.1690    -1.6670 ca         1 0QJ      -0.115000
     14 CAV          7.5130    -9.9570    -1.4670 ca         1 0QJ      -0.044400
     15 NAU          6.9990    -8.7710    -2.0790 ns         1 0QJ      -0.376100
     16 CAT          7.0620    -7.5630    -1.4590 c          1 0QJ       0.637100
     17 OBF          7.7180    -7.1960    -0.4790 o          1 0QJ      -0.506100
     18 NAS          6.2640    -6.3930    -2.1270 ny         1 0QJ      -0.681800
     19 CAR          6.9250    -5.0720    -1.9160 c3         1 0QJ       0.123800
     20 CAQ          6.6190    -4.4400    -0.5580 c3         1 0QJ      -0.127400
     21 CAP          7.4120    -3.1370    -0.4520 c3         1 0QJ       0.116800
     22 NAN          7.1150    -2.3600     0.7840 nx         1 0QJ      -0.720400
     23 CAO          7.6470    -3.0330     1.9920 c3         1 0QJ       0.088100
     24 CAM          7.6570    -0.9690     0.7020 c3         1 0QJ       0.101800
     25 CAL          7.1190    -0.1380    -0.4720 c3         1 0QJ       0.082100
     26 OBG          5.7970    -0.5470    -0.8290 os         1 0QJ      -0.431600
     27 CAJ          7.1090     1.3700    -0.1320 c3         1 0QJ       0.103100
     28 OAK          7.9780     2.0810    -0.9720 oh         1 0QJ      -0.562800
     29 CAH          5.6360     1.8080    -0.2820 c3         1 0QJ       0.073100
     30 OAI          5.4950     2.6860    -1.3780 oh         1 0QJ      -0.587800
     31 CAG          4.8460     0.5190    -0.6820 c3         1 0QJ       0.261800
     32 N9           3.7920     0.1710     0.2380 na         1 0QJ      -0.308000
     33 N7           1.6950     0.4100     1.1790 nd         1 0QJ      -0.497100
     34 N3           4.4530    -1.9540     1.4510 nb         1 0QJ      -0.886000
     35 N1           2.7120    -2.7490     2.9900 nb         1 0QJ      -0.768000
     36 N6           0.6420    -1.5850     3.2560 nv         1 0QJ      -0.906500
     37 CAZ          9.0560   -13.6670     0.1240 c3         1 0QJ      -0.022700
     38 H1           4.5470    -3.6490     2.6790 h5         1 0QJ       0.037100
     39 H2           2.4290     1.8240    -0.2930 h5         1 0QJ       0.100800
     40 H3           7.0580   -14.4630     0.5330 hc         1 0QJ       0.047256
     41 H4           8.3970   -15.2390     1.4730 hc         1 0QJ       0.047256
     42 H5           7.8210   -13.5790     1.9230 hc         1 0QJ       0.047256
     43 H6          10.0530   -14.2020    -1.7430 hc         1 0QJ       0.047256
     44 H7           9.6890   -15.5980    -0.6460 hc         1 0QJ       0.047256
     45 H8           8.3540   -14.8260    -1.5950 hc         1 0QJ       0.047256
     46 H9          10.7010   -14.4970     1.2680 hc         1 0QJ       0.047256
     47 H10         10.2230   -12.8260     1.7690 hc         1 0QJ       0.047256
     48 H11         11.1610   -13.0890     0.2300 hc         1 0QJ       0.047256
     49 H14          6.7920   -13.2910    -1.3170 ha         1 0QJ       0.166000
     50 H15          5.8770   -11.2030    -2.2380 ha         1 0QJ       0.146500
     51 H16          6.3740    -8.9260    -2.8450 hn         1 0QJ       0.348500
     52 H17          6.1650    -6.5450    -3.1350 hn         1 0QJ       0.458300
     53 H18          6.5730    -4.3850    -2.7410 hx         1 0QJ       0.114700
     54 H19          8.0390    -5.2270    -2.0190 hx         1 0QJ       0.114700
     55 H20          6.9180    -5.1470     0.2640 hc         1 0QJ       0.094700
     56 H21          5.5190    -4.2320    -0.4630 hc         1 0QJ       0.094700
     57 H22          7.1510    -2.4810    -1.3350 hx         1 0QJ       0.103700
     58 H23          8.5170    -3.3590    -0.4770 hx         1 0QJ       0.103700
     59 H25          7.1770    -4.0470     2.0890 hx         1 0QJ       0.098033
     60 H26          7.3880    -2.4230     2.9000 hx         1 0QJ       0.098033
     61 H27          8.7630    -3.1400     1.9210 hx         1 0QJ       0.098033
     62 H28          8.7810    -1.0120     0.6190 hx         1 0QJ       0.106700
     63 H29          7.3870    -0.4700     1.6790 hx         1 0QJ       0.106700
     64 H30          7.7500    -0.3210    -1.3890 h1         1 0QJ       0.096700
     65 H31          7.4930     1.5700     0.9070 h1         1 0QJ       0.109700
     66 H32          7.5700     2.1620    -1.8490 ho         1 0QJ       0.434000
     67 H33          5.2560     2.2760     0.6640 h1         1 0QJ       0.095700
     68 H34          5.7780     3.5660    -1.0870 ho         1 0QJ       0.448000
     69 H35          4.3820     0.6520    -1.7120 h2         1 0QJ       0.127700
     70 H36          0.0570    -0.8150     3.0220 hn         1 0QJ       0.473300
     71 H37          0.3340    -2.2410     3.9370 hn         1 0QJ       0.473300
     72 H12         10.1500   -11.1130     0.3550 ha         1 0QJ       0.166000
     73 HAS2         5.3300    -6.3830    -1.7040 hn         1 0QJ       0.458300
     74 HAN1         6.0330    -2.2520     0.8870 hn         1 0QJ       0.534800
     75 H13          9.2590    -9.0150    -0.5460 ha         1 0QJ       0.146500
@<TRIPOS>BOND
     1     1    34 ar  
     2     1    35 ar  
     3     1    38 1   
     4     2     3 ar  
     5     2    32 1   
     6     2    34 ar  
     7     3     4 ar  
     8     3    33 1   
     9     4    35 ar  
    10     4    36 1   
    11     5    32 1   
    12     5    33 2   
    13     5    39 1   
    14     6    37 1   
    15     6    40 1   
    16     6    41 1   
    17     6    42 1   
    18     7    37 1   
    19     7    43 1   
    20     7    44 1   
    21     7    45 1   
    22     8    37 1   
    23     8    46 1   
    24     8    47 1   
    25     8    48 1   
    26     9    10 ar  
    27     9    12 ar  
    28     9    37 1   
    29    10    11 ar  
    30    10    72 1   
    31    11    14 ar  
    32    11    75 1   
    33    12    13 ar  
    34    12    49 1   
    35    13    14 ar  
    36    13    50 1   
    37    14    15 1   
    38    15    16 1   
    39    15    51 1   
    40    16    17 2   
    41    16    18 1   
    42    18    19 1   
    43    18    52 1   
    44    18    73 1   
    45    19    20 1   
    46    19    53 1   
    47    19    54 1   
    48    20    21 1   
    49    20    55 1   
    50    20    56 1   
    51    21    22 1   
    52    21    57 1   
    53    21    58 1   
    54    22    23 1   
    55    22    24 1   
    56    22    74 1   
    57    23    59 1   
    58    23    60 1   
    59    23    61 1   
    60    24    25 1   
    61    24    62 1   
    62    24    63 1   
    63    25    26 1   
    64    25    27 1   
    65    25    64 1   
    66    26    31 1   
    67    27    28 1   
    68    27    29 1   
    69    27    65 1   
    70    28    66 1   
    71    29    30 1   
    72    29    31 1   
    73    29    67 1   
    74    30    68 1   
    75    31    32 1   
    76    31    69 1   
    77    36    70 1   
    78    36    71 1   
@<TRIPOS>SUBSTRUCTURE
     1 0QJ         1 TEMP              0 ****  ****    0 ROOT
