@<TRIPOS>MOLECULE
0QK
   82    84     1     0     0
SMALL
bcc


@<TRIPOS>ATOM
      1 C2           3.0800    -3.1610     1.2620 c2         1 0QK       0.028000
      2 C4           3.3950    -0.8710     1.1340 c2         1 0QK       0.171000
      3 C5           2.0800    -0.6850     1.6420 c2         1 0QK      -0.208000
      4 C6           1.2980    -1.8590     1.9590 c2         1 0QK       0.226000
      5 CBI         10.2440   -13.8280     0.2200 c3         1 0QK      -0.209667
      6 CBJ          9.4400   -12.8600     2.3490 c3         1 0QK      -0.209667
      7 CBK          7.9430   -14.3130     0.9860 c3         1 0QK      -0.209667
      8 CBE          8.4870   -12.0240     0.2250 ca         1 0QK      -0.004000
      9 CBF          7.3670   -11.3660     0.7550 ca         1 0QK      -0.106000
     10 CBG          6.8230   -10.2440     0.1390 ca         1 0QK      -0.120000
     11 CBD          9.0600   -11.5200    -0.9510 ca         1 0QK      -0.106000
     12 CBC          8.5380   -10.3980    -1.5850 ca         1 0QK      -0.120000
     13 CBB          7.4060    -9.7550    -1.0440 ca         1 0QK      -0.030000
     14 NAZ          6.8600    -8.6430    -1.7570 ns         1 0QK      -0.240000
     15 CAY          6.2180    -7.6240    -1.1350 c2         1 0QK       0.335000
     16 OBA          5.8940    -7.4700     0.0480 o          1 0QK      -0.268000
     17 NAX          5.7290    -6.4410    -2.0270 ny         1 0QK      -0.112000
     18 CAW          6.5550    -5.2210    -1.7970 c3         1 0QK      -0.119000
     19 CAV          6.2150    -4.4980    -0.4930 c3         1 0QK      -0.210000
     20 CAT          7.1530    -3.3000    -0.3520 c3         1 0QK      -0.120000
     21 NAS          6.8270    -2.4040     0.7970 nx         1 0QK      -0.022000
     22 CAU          7.2460    -3.0210     2.1190 c3         1 0QK      -0.058000
     23 CBM          6.5350    -2.3710     3.3020 c3         1 0QK      -0.245000
     24 CBL          8.7490    -2.9920     2.3600 c3         1 0QK      -0.245000
     25 CAR          7.4480    -1.0560     0.6120 c3         1 0QK      -0.144000
     26 CAN          6.9520    -0.3060    -0.6350 c3         1 0QK       0.000000
     27 OAO          5.5780    -0.5930    -0.8890 os         1 0QK      -0.280000
     28 CAM          7.0920     1.2230    -0.4670 c3         1 0QK      -0.015000
     29 OAQ          7.8170     1.6760    -1.5920 oh         1 0QK      -0.318000
     30 CAL          5.6440     1.7690    -0.4810 c3         1 0QK      -0.019000
     31 OAP          5.3790     2.5240    -1.6320 oh         1 0QK      -0.285000
     32 CAK          4.7420     0.4900    -0.4350 c3         1 0QK       0.083000
     33 NAG          4.2340     0.2500     0.9090 nu         1 0QK      -0.313000
     34 CAH          1.0160     1.4620     0.9850 c1         1 0QK       0.285000
     35 CAI          1.5320     0.6350     1.8740 c2         1 0QK      -0.495000
     36 N3           3.9070    -2.1340     0.9380 n2         1 0QK      -0.349000
     37 N1           1.8310    -3.1240     1.7460 n2         1 0QK      -0.229000
     38 NAJ          0.0400    -1.7400     2.4620 nv         1 0QK      -0.323000
     39 CBH          9.0300   -13.2410     0.9280 c3         1 0QK      -0.029000
     40 H1           3.4940    -4.1820     1.1110 h5         1 0QK       0.167000
     41 H2          11.0760   -13.0850     0.1770 hc         1 0QK       0.086333
     42 H3           9.9820   -14.1500    -0.8170 hc         1 0QK       0.086333
     43 H4          10.6060   -14.7240     0.7810 hc         1 0QK       0.086333
     44 H5          10.2320   -12.0740     2.3280 hc         1 0QK       0.086333
     45 H6           8.5660   -12.4760     2.9260 hc         1 0QK       0.086333
     46 H7           9.8440   -13.7580     2.8760 hc         1 0QK       0.086333
     47 H8           8.3390   -15.2200     1.5030 hc         1 0QK       0.086333
     48 H9           7.6260   -14.6020    -0.0450 hc         1 0QK       0.086333
     49 H10          7.0530   -13.9460     1.5480 hc         1 0QK       0.086333
     50 H13          9.9410   -12.0090    -1.4010 ha         1 0QK       0.166000
     51 H14          9.0140   -10.0370    -2.5110 ha         1 0QK       0.148000
     52 H15          7.0660    -8.6140    -2.7350 hn         1 0QK       0.266000
     53 H16          5.7400    -6.6720    -3.0240 hn         1 0QK       0.259000
     54 H17          7.6390    -5.5340    -1.7950 hx         1 0QK       0.149000
     55 H18          6.3830    -4.5230    -2.6700 hx         1 0QK       0.149000
     56 H19          6.3310    -5.2020     0.3770 hc         1 0QK       0.139500
     57 H20          5.1460    -4.1510    -0.5140 hc         1 0QK       0.139500
     58 H21          7.0780    -2.6810    -1.2950 hx         1 0QK       0.140500
     59 H22          8.2170    -3.6550    -0.2380 hx         1 0QK       0.140500
     60 H24          6.9090    -4.1010     2.0590 hx         1 0QK       0.123000
     61 H25          6.7940    -2.9560     4.2210 hc         1 0QK       0.114833
     62 H26          6.8700    -1.3170     3.4570 hc         1 0QK       0.114833
     63 H27          5.4260    -2.3850     3.1810 hc         1 0QK       0.114833
     64 H28          9.1070    -1.9560     2.5780 hc         1 0QK       0.114833
     65 H29          8.9670    -3.6260     3.2580 hc         1 0QK       0.114833
     66 H30          9.3280    -3.4030     1.4990 hc         1 0QK       0.114833
     67 H31          7.1960    -0.4610     1.5370 hx         1 0QK       0.147500
     68 H32          8.5660    -1.1700     0.5380 hx         1 0QK       0.147500
     69 H33          7.5090    -0.6430    -1.5560 h1         1 0QK       0.146000
     70 H34          7.6250     1.5030     0.4790 h1         1 0QK       0.115000
     71 H35          7.8150     2.6450    -1.5680 ho         1 0QK       0.247000
     72 H36          5.4560     2.4780     0.3720 h1         1 0QK       0.158000
     73 H37          5.6430     2.0040    -2.4070 ho         1 0QK       0.226000
     74 H38          3.9190     0.5390    -1.2120 h2         1 0QK       0.145000
     75 H39          3.8280     1.0890     1.2870 hn         1 0QK       0.228000
     76 H40          1.5360     0.9720     2.9380 ha         1 0QK       0.210000
     77 H41         -0.3500    -0.8370     2.5900 hn         1 0QK       0.261000
     78 H42         -0.5100    -2.5420     2.6680 hn         1 0QK       0.261000
     79 H11          6.8970   -11.7430     1.6790 ha         1 0QK       0.166000
     80 HAX2         4.7570    -6.2540    -1.7470 hn         1 0QK       0.259000
     81 HAS1         5.7720    -2.2590     0.8140 hn         1 0QK       0.316000
     82 H12          5.9440    -9.7540     0.5870 ha         1 0QK       0.148000
@<TRIPOS>BOND
     1     1    36 1   
     2     1    37 1   
     3     1    40 1   
     4     2     3 1   
     5     2    33 1   
     6     2    36 1   
     7     3     4 1   
     8     3    35 1   
     9     4    37 1   
    10     4    38 1   
    11     5    39 1   
    12     5    41 1   
    13     5    42 1   
    14     5    43 1   
    15     6    39 1   
    16     6    44 1   
    17     6    45 1   
    18     6    46 1   
    19     7    39 1   
    20     7    47 1   
    21     7    48 1   
    22     7    49 1   
    23     8     9 1   
    24     8    11 1   
    25     8    39 1   
    26     9    10 1   
    27     9    79 1   
    28    10    13 1   
    29    10    82 1   
    30    11    12 1   
    31    11    50 1   
    32    12    13 1   
    33    12    51 1   
    34    13    14 1   
    35    14    15 1   
    36    14    52 1   
    37    15    16 1   
    38    15    17 1   
    39    17    18 1   
    40    17    53 1   
    41    17    80 1   
    42    18    19 1   
    43    18    54 1   
    44    18    55 1   
    45    19    20 1   
    46    19    56 1   
    47    19    57 1   
    48    20    21 1   
    49    20    58 1   
    50    20    59 1   
    51    21    22 1   
    52    21    25 1   
    53    21    81 1   
    54    22    23 1   
    55    22    24 1   
    56    22    60 1   
    57    23    61 1   
    58    23    62 1   
    59    23    63 1   
    60    24    64 1   
    61    24    65 1   
    62    24    66 1   
    63    25    26 1   
    64    25    67 1   
    65    25    68 1   
    66    26    27 1   
    67    26    28 1   
    68    26    69 1   
    69    27    32 1   
    70    28    29 1   
    71    28    30 1   
    72    28    70 1   
    73    29    71 1   
    74    30    31 1   
    75    30    32 1   
    76    30    72 1   
    77    31    73 1   
    78    32    33 1   
    79    32    74 1   
    80    33    75 1   
    81    34    35 1   
    82    35    76 1   
    83    38    77 1   
    84    38    78 1   
@<TRIPOS>SUBSTRUCTURE
     1 0QK         1 TEMP              0 ****  ****    0 ROOT
