@<TRIPOS>MOLECULE
molecule
   80    83     1     0     0
SMALL
bcc


@<TRIPOS>ATOM
      1 C2           0.0000     0.0000     0.0000 ca         1 0QK       0.740900
      2 C4           1.9960     0.0000     1.1460 ca         1 0QK       0.527800
      3 C5           1.2760     0.0020     2.3550 ca         1 0QK      -0.408400
      4 C6          -0.1260    -0.0030     2.3040 ca         1 0QK       0.774200
      5 CBI         19.7500    -7.8000     3.3600 c3         1 0QK      -0.080767
      6 CBJ         20.4860    -6.0230     1.7650 c3         1 0QK      -0.080767
      7 CBK         19.9670    -8.3180     0.9260 c3         1 0QK      -0.080767
      8 CBE         18.1340    -6.8970     1.7100 ca         1 0QK      -0.090300
      9 CBF         17.5100    -5.9610     2.5140 ca         1 0QK      -0.111000
     10 CBG         16.1830    -5.6410     2.3010 ca         1 0QK      -0.144000
     11 CBD         17.4340    -7.5120     0.6880 ca         1 0QK      -0.111000
     12 CBC         16.1080    -7.1950     0.4700 ca         1 0QK      -0.144000
     13 CBB         15.4760    -6.2600     1.2800 ca         1 0QK       0.070600
     14 NAZ         14.1320    -5.9390     1.0620 ns         1 0QK      -0.493100
     15 CAY         13.6950    -4.6830     1.2810 c          1 0QK       0.780100
     16 OBA         14.4870    -3.8040     1.5620 o          1 0QK      -0.646100
     17 NAX         12.3800    -4.4000     1.1900 ns         1 0QK      -0.602900
     18 CAW         11.9060    -3.0350     1.4280 c3         1 0QK       0.128000
     19 CAV         10.3860    -2.9870     1.2630 c3         1 0QK      -0.104400
     20 CAT          9.8900    -1.5600     1.5120 c3         1 0QK       0.157800
     21 NAS          8.4560    -1.4810     1.2090 n3         1 0QK      -0.722600
     22 CAU          7.6620    -2.1690     2.2360 c3         1 0QK       0.154500
     23 CBM          7.4880    -3.6380     1.8460 c3         1 0QK      -0.104100
     24 CBL          8.3830    -2.0800     3.5830 c3         1 0QK      -0.104100
     25 CAR          8.0260    -0.0840     1.0600 c3         1 0QK       0.167800
     26 CAN          6.7090    -0.0360     0.2820 c3         1 0QK       0.133100
     27 OAO          5.6240    -0.5260     1.0990 os         1 0QK      -0.418600
     28 CAM          6.3290     1.4260    -0.0420 c3         1 0QK       0.088100
     29 OAQ          6.7120     1.7590    -1.3790 oh         1 0QK      -0.569800
     30 CAL          4.7910     1.4560     0.1030 c3         1 0QK       0.087100
     31 OAP          4.1770     1.8070    -1.1380 oh         1 0QK      -0.559800
     32 CAK          4.4240     0.0080     0.4990 c3         1 0QK       0.254800
     33 NAG          3.3250     0.0070     1.4680 na         1 0QK      -0.165100
     34 CAH          3.4780     0.0120     2.8300 cc         1 0QK      -0.099100
     35 CAI          2.2730     0.0090     3.4240 cd         1 0QK      -0.177200
     36 N3           1.3150     0.0000     0.0000 nb         1 0QK      -0.794000
     37 N1          -0.7140     0.0010     1.1120 nb         1 0QK      -0.841000
     38 NAJ         -0.8780    -0.0030     3.4650 nv         1 0QK      -0.995500
     39 H1          -0.5190     0.0040    -0.9510 h5         1 0QK       0.059100
     40 H2          20.7220    -8.2690     3.4500 hc         1 0QK       0.036256
     41 H3          19.6700    -6.9920     4.0770 hc         1 0QK       0.036256
     42 H4          18.9760    -8.5330     3.5540 hc         1 0QK       0.036256
     43 H5          21.5230    -6.3310     1.8170 hc         1 0QK       0.036256
     44 H6          20.2940    -5.5600     0.8050 hc         1 0QK       0.036256
     45 H7          20.2810    -5.3120     2.5560 hc         1 0QK       0.036256
     46 H8          19.3290    -9.1840     1.0550 hc         1 0QK       0.036256
     47 H9          19.8400    -7.9230    -0.0750 hc         1 0QK       0.036256
     48 H10         21.0010    -8.6060     1.0720 hc         1 0QK       0.036256
     49 H12         15.6930    -4.9090     2.9330 ha         1 0QK       0.143500
     50 H13         17.9270    -8.2410     0.0560 ha         1 0QK       0.136000
     51 H14         15.5590    -7.6790    -0.3290 ha         1 0QK       0.143500
     52 H15         13.4910    -6.6450     0.7600 hn         1 0QK       0.316500
     53 H16         11.7300    -5.1180     0.9340 hn         1 0QK       0.308500
     54 H17         12.3680    -2.3630     0.7150 h1         1 0QK       0.052200
     55 H18         12.1700    -2.7320     2.4340 h1         1 0QK       0.052200
     56 H19          9.9240    -3.6590     1.9760 hc         1 0QK       0.057700
     57 H20         10.1220    -3.2910     0.2570 hc         1 0QK       0.057700
     58 H21         10.4330    -0.8730     0.8740 h1         1 0QK       0.041200
     59 H22         10.0550    -1.2960     2.5490 h1         1 0QK       0.041200
     60 H24          6.6890    -1.6990     2.3150 h1         1 0QK       0.085700
     61 H25          6.4600    -3.9360     2.0120 hc         1 0QK       0.038867
     62 H26          8.1440    -4.2520     2.4510 hc         1 0QK       0.038867
     63 H27          7.7370    -3.7660     0.8000 hc         1 0QK       0.038867
     64 H28          9.2240    -2.7630     3.5880 hc         1 0QK       0.038867
     65 H29          8.7370    -1.0690     3.7370 hc         1 0QK       0.038867
     66 H30          7.6970    -2.3480     4.3770 hc         1 0QK       0.038867
     67 H31          8.7840     0.4710     0.5220 h1         1 0QK       0.044200
     68 H32          7.8830     0.3560     2.0400 h1         1 0QK       0.044200
     69 H33          6.7820    -0.6160    -0.6300 h1         1 0QK       0.094700
     70 H34          6.7880     2.1010     0.6690 h1         1 0QK       0.044700
     71 H35          7.1770     2.5790    -1.3780 ho         1 0QK       0.402000
     72 H36          4.5000     2.1460     0.8860 h1         1 0QK       0.055700
     73 H37          3.9120     2.7120    -1.1130 ho         1 0QK       0.406000
     74 H38          4.1580    -0.5650    -0.3810 h2         1 0QK       0.112700
     75 H39          4.4290     0.0170     3.3500 h4         1 0QK       0.177000
     76 H40          2.0780     0.0120     4.4890 ha         1 0QK       0.149000
     77 H41         -0.4220    -0.0120     4.3560 hn         1 0QK       0.443300
     78 H42         -1.8770     0.0040     3.4130 hn         1 0QK       0.443300
     79 H11         18.0620    -5.4780     3.3110 ha         1 0QK       0.136000
     80 CBH         19.5820    -7.2440     1.9450 c3         1 0QK      -0.021700
@<TRIPOS>BOND
     1     5    80 1   
     2     7    80 1   
     3    80     6 1   
     4    80     8 1   
     5     8     9 ar  
     6     8    11 ar  
     7     9    10 ar  
     8    11    12 ar  
     9    10    13 ar  
    10    12    13 ar  
    11    13    14 1   
    12    14    15 1   
    13    15    16 2   
    14    15    17 1   
    15    17    18 1   
    16    18    19 1   
    17    19    20 1   
    18    22    23 1   
    19    22    24 1   
    20    22    21 1   
    21    20    21 1   
    22    21    25 1   
    23    25    26 1   
    24    27    26 1   
    25    27    32 1   
    26    26    28 1   
    27    32    33 1   
    28    32    30 1   
    29    33    34 1   
    30    33     2 1   
    31    28    29 1   
    32    28    30 1   
    33    34    35 2   
    34    36     2 ar  
    35    36     1 ar  
    36     2     3 ar  
    37     1    37 ar  
    38    35     3 1   
    39     3     4 ar  
    40    37     4 ar  
    41     4    38 1   
    42    30    31 1   
    43     1    39 1   
    44     5    40 1   
    45     5    41 1   
    46     5    42 1   
    47     6    43 1   
    48     6    44 1   
    49     6    45 1   
    50     7    46 1   
    51     7    47 1   
    52     7    48 1   
    53     9    79 1   
    54    10    49 1   
    55    11    50 1   
    56    12    51 1   
    57    14    52 1   
    58    17    53 1   
    59    18    54 1   
    60    18    55 1   
    61    19    56 1   
    62    19    57 1   
    63    20    58 1   
    64    20    59 1   
    65    22    60 1   
    66    23    61 1   
    67    23    62 1   
    68    23    63 1   
    69    24    64 1   
    70    24    65 1   
    71    24    66 1   
    72    25    67 1   
    73    25    68 1   
    74    26    69 1   
    75    28    70 1   
    76    29    71 1   
    77    30    72 1   
    78    31    73 1   
    79    32    74 1   
    80    34    75 1   
    81    35    76 1   
    82    38    77 1   
    83    38    78 1   
@<TRIPOS>SUBSTRUCTURE
     1 0QK         1 TEMP              0 ****  ****    0 ROOT
