@<TRIPOS>MOLECULE
0QK
   80    83     1     0     0
SMALL
bcc


@<TRIPOS>ATOM
      1 C2           0.0000     0.0000     0.0000 ca         1 0QK       0.690900
      2 C4           1.9960     0.0000     1.1460 ca         1 0QK       0.317800
      3 C5           1.2760     0.0020     2.3550 ca         1 0QK      -0.417400
      4 C6          -0.1260    -0.0030     2.3040 ca         1 0QK       0.588200
      5 CBI         19.7500    -7.8000     3.3600 c3         1 0QK       0.004567
      6 CBJ         20.4860    -6.0230     1.7650 c3         1 0QK       0.004567
      7 CBK         19.9670    -8.3180     0.9260 c3         1 0QK       0.004567
      8 CBE         18.1340    -6.8970     1.7100 ca         1 0QK      -0.093300
      9 CBF         17.5100    -5.9610     2.5140 ca         1 0QK      -0.090500
     10 CBG         16.1830    -5.6410     2.3010 ca         1 0QK      -0.116500
     11 CBD         17.4340    -7.5120     0.6880 ca         1 0QK      -0.090500
     12 CBC         16.1080    -7.1950     0.4700 ca         1 0QK      -0.116500
     13 CBB         15.4760    -6.2600     1.2800 ca         1 0QK      -0.076400
     14 NAZ         14.1320    -5.9390     1.0620 ns         1 0QK      -0.054100
     15 CAY         13.6950    -4.6830     1.2810 c          1 0QK       0.565100
     16 OBA         14.4870    -3.8040     1.5620 o          1 0QK      -0.694100
     17 NAX         12.3800    -4.4000     1.1900 ns         1 0QK      -0.220900
     18 CAW         11.9060    -3.0350     1.4280 c3         1 0QK       0.066000
     19 CAV         10.3860    -2.9870     1.2630 c3         1 0QK      -0.064400
     20 CAT          9.8900    -1.5600     1.5120 c3         1 0QK       0.134800
     21 NAS          8.4560    -1.4810     1.2090 n3         1 0QK      -0.529600
     22 CAU          7.6620    -2.1690     2.2360 c3         1 0QK       0.103500
     23 CBM          7.4880    -3.6380     1.8460 c3         1 0QK      -0.022100
     24 CBL          8.3830    -2.0800     3.5830 c3         1 0QK      -0.022100
     25 CAR          8.0260    -0.0840     1.0600 c3         1 0QK       0.147800
     26 CAN          6.7090    -0.0360     0.2820 c3         1 0QK       0.166100
     27 OAO          5.6240    -0.5260     1.0990 os         1 0QK      -0.400600
     28 CAM          6.3290     1.4260    -0.0420 c3         1 0QK       0.128100
     29 OAQ          6.7120     1.7590    -1.3790 oh         1 0QK      -0.547800
     30 CAL          4.7910     1.4560     0.1030 c3         1 0QK       0.122100
     31 OAP          4.1770     1.8070    -1.1380 oh         1 0QK      -0.538800
     32 CAK          4.4240     0.0080     0.4990 c3         1 0QK       0.140800
     33 NAG          3.3250     0.0070     1.4680 na         1 0QK       0.304900
     34 CAH          3.4780     0.0120     2.8300 cc         1 0QK      -0.260100
     35 CAI          2.2730     0.0090     3.4240 cd         1 0QK      -0.130200
     36 N3           1.3150     0.0000     0.0000 nb         1 0QK      -0.683000
     37 N1          -0.7140     0.0010     1.1120 nb         1 0QK      -0.749000
     38 NAJ         -0.8780    -0.0030     3.4650 nv         1 0QK      -0.500500
     39 H1          -0.5190     0.0040    -0.9510 h5         1 0QK      -0.006900
     40 H2          20.7220    -8.2690     3.4500 hc         1 0QK       0.006700
     41 H3          19.6700    -6.9920     4.0770 hc         1 0QK       0.006700
     42 H4          18.9760    -8.5330     3.5540 hc         1 0QK       0.006700
     43 H5          21.5230    -6.3310     1.8170 hc         1 0QK       0.006700
     44 H6          20.2940    -5.5600     0.8050 hc         1 0QK       0.006700
     45 H7          20.2810    -5.3120     2.5560 hc         1 0QK       0.006700
     46 H8          19.3290    -9.1840     1.0550 hc         1 0QK       0.006700
     47 H9          19.8400    -7.9230    -0.0750 hc         1 0QK       0.006700
     48 H10         21.0010    -8.6060     1.0720 hc         1 0QK       0.006700
     49 H12         15.6930    -4.9090     2.9330 ha         1 0QK       0.120500
     50 H13         17.9270    -8.2410     0.0560 ha         1 0QK       0.114500
     51 H14         15.5590    -7.6790    -0.3290 ha         1 0QK       0.120500
     52 H15         13.4910    -6.6450     0.7600 hn         1 0QK       0.158500
     53 H16         11.7300    -5.1180     0.9340 hn         1 0QK       0.168500
     54 H17         12.3680    -2.3630     0.7150 h1         1 0QK       0.025200
     55 H18         12.1700    -2.7320     2.4340 h1         1 0QK       0.025200
     56 H19          9.9240    -3.6590     1.9760 hc         1 0QK       0.032700
     57 H20         10.1220    -3.2910     0.2570 hc         1 0QK       0.032700
     58 H21         10.4330    -0.8730     0.8740 h1         1 0QK       0.022700
     59 H22         10.0550    -1.2960     2.5490 h1         1 0QK       0.022700
     60 H24          6.6890    -1.6990     2.3150 h1         1 0QK       0.061700
     61 H25          6.4600    -3.9360     2.0120 hc         1 0QK       0.012033
     62 H26          8.1440    -4.2520     2.4510 hc         1 0QK       0.012033
     63 H27          7.7370    -3.7660     0.8000 hc         1 0QK       0.012033
     64 H28          9.2240    -2.7630     3.5880 hc         1 0QK       0.012033
     65 H29          8.7370    -1.0690     3.7370 hc         1 0QK       0.012033
     66 H30          7.6970    -2.3480     4.3770 hc         1 0QK       0.012033
     67 H31          8.7840     0.4710     0.5220 h1         1 0QK       0.019200
     68 H32          7.8830     0.3560     2.0400 h1         1 0QK       0.019200
     69 H33          6.7820    -0.6160    -0.6300 h1         1 0QK       0.057700
     70 H34          6.7880     2.1010     0.6690 h1         1 0QK       0.011700
     71 H35          7.1770     2.5790    -1.3780 ho         1 0QK       0.386000
     72 H36          4.5000     2.1460     0.8860 h1         1 0QK       0.017700
     73 H37          3.9120     2.7120    -1.1130 ho         1 0QK       0.390000
     74 H38          4.1580    -0.5650    -0.3810 h2         1 0QK       0.072700
     75 H39          4.4290     0.0170     3.3500 h4         1 0QK       0.150000
     76 H40          2.0780     0.0120     4.4890 ha         1 0QK       0.124000
     77 H41         -0.4220    -0.0120     4.3560 hn         1 0QK       0.271300
     78 H42         -1.8770     0.0040     3.4130 hn         1 0QK       0.271300
     79 H11         18.0620    -5.4780     3.3110 ha         1 0QK       0.114500
     80 CBH         19.5820    -7.2440     1.9450 c3         1 0QK      -0.010700
@<TRIPOS>BOND
     1     1    36 ar  
     2     1    37 ar  
     3     1    39 1   
     4     2     3 ar  
     5     2    33 1   
     6     2    36 ar  
     7     3     4 ar  
     8     3    35 1   
     9     4    37 ar  
    10     4    38 1   
    11     5    40 1   
    12     5    41 1   
    13     5    42 1   
    14     5    80 1   
    15     6    43 1   
    16     6    44 1   
    17     6    45 1   
    18     6    80 1   
    19     7    46 1   
    20     7    47 1   
    21     7    48 1   
    22     7    80 1   
    23     8     9 ar  
    24     8    11 ar  
    25     8    80 1   
    26     9    10 ar  
    27     9    79 1   
    28    10    13 ar  
    29    10    49 1   
    30    11    12 ar  
    31    11    50 1   
    32    12    13 ar  
    33    12    51 1   
    34    13    14 1   
    35    14    15 1   
    36    14    52 1   
    37    15    16 2   
    38    15    17 1   
    39    17    18 1   
    40    17    53 1   
    41    18    19 1   
    42    18    54 1   
    43    18    55 1   
    44    19    20 1   
    45    19    56 1   
    46    19    57 1   
    47    20    21 1   
    48    20    58 1   
    49    20    59 1   
    50    21    22 1   
    51    21    25 1   
    52    22    23 1   
    53    22    24 1   
    54    22    60 1   
    55    23    61 1   
    56    23    62 1   
    57    23    63 1   
    58    24    64 1   
    59    24    65 1   
    60    24    66 1   
    61    25    26 1   
    62    25    67 1   
    63    25    68 1   
    64    26    27 1   
    65    26    28 1   
    66    26    69 1   
    67    27    32 1   
    68    28    29 1   
    69    28    30 1   
    70    28    70 1   
    71    29    71 1   
    72    30    31 1   
    73    30    32 1   
    74    30    72 1   
    75    31    73 1   
    76    32    33 1   
    77    32    74 1   
    78    33    34 1   
    79    34    35 2   
    80    34    75 1   
    81    35    76 1   
    82    38    77 1   
    83    38    78 1   
@<TRIPOS>SUBSTRUCTURE
     1 0QK         1 TEMP              0 ****  ****    0 ROOT
