@<TRIPOS>MOLECULE
molecule
   28    29     1     0     0
SMALL
bcc


@<TRIPOS>ATOM
      1 CAD          0.0000     0.0000     0.0000 ca         1 0QR       0.008500
      2 CAE          1.3830     0.0000     0.0000 ca         1 0QR      -0.199500
      3 CAF          2.0740     0.0000     1.1990 ca         1 0QR       0.187900
      4 FAG          3.4260    -0.0000     1.2010 f          1 0QR      -0.135900
      5 CAH          1.3810     0.0000     2.3980 ca         1 0QR      -0.199500
      6 CAI         -0.0020     0.0010     2.3950 ca         1 0QR       0.008500
      7 CAC         -0.6910     0.0060     1.1970 ca         1 0QR      -0.324500
      8 SAB         -2.4530     0.0060     1.1960 sy         1 0QR       1.429200
      9 OAA         -2.8540    -0.5320    -0.0560 o          1 0QR      -0.622800
     10 OAR         -2.8560    -0.5430     2.4430 o          1 0QR      -0.622800
     11 NA2         -2.9430     1.5880     1.2020 nu         1 0QR      -0.854800
     12 CAK         -2.6610     2.4080     0.1160 ca         1 0QR       0.733200
     13 NA3         -2.0060     1.9140    -0.9250 nb         1 0QR      -0.824000
     14 CAQ         -3.0760     3.7340     0.1280 ca         1 0QR      -0.345300
     15 CAP         -2.7910     4.5430    -0.9600 ca         1 0QR      -0.020000
     16 CAO         -2.0990     3.9970    -2.0290 ca         1 0QR      -0.353300
     17 CAM         -1.7180     2.6610    -1.9800 ca         1 0QR       0.750200
     18 NA1         -1.0280     2.1040    -3.0500 nv         1 0QR      -1.010500
     19 H1          -0.5420     0.0020    -0.9380 ha         1 0QR       0.162500
     20 H2           1.9250    -0.0050    -0.9380 ha         1 0QR       0.149000
     21 H3           1.9210    -0.0020     3.3370 ha         1 0QR       0.149000
     22 H4          -0.5450     0.0030     3.3330 ha         1 0QR       0.162500
     23 H5          -3.4700     1.9450     1.9740 hn         1 0QR       0.471800
     24 H6          -3.6160     4.1310     0.9800 ha         1 0QR       0.138000
     25 H7          -3.1010     5.5810    -0.9740 ha         1 0QR       0.139000
     26 H8          -1.8610     4.6040    -2.8940 ha         1 0QR       0.138000
     27 H9          -0.7060     2.6880    -3.7960 hn         1 0QR       0.442800
     28 H10         -0.8400     1.1210    -3.0670 hn         1 0QR       0.442800
@<TRIPOS>BOND
     1    18    17 1   
     2    17    13 ar  
     3    17    16 ar  
     4    13    12 ar  
     5    16    15 ar  
     6    12    11 1   
     7    12    14 ar  
     8    11     8 1   
     9    15    14 ar  
    10     9     8 2   
    11     8    10 2   
    12     8     7 1   
    13     6     7 ar  
    14     6     5 ar  
    15     7     1 ar  
    16     1     2 ar  
    17     5     3 ar  
    18     3     2 ar  
    19     3     4 1   
    20     1    19 1   
    21     2    20 1   
    22     5    21 1   
    23     6    22 1   
    24    11    23 1   
    25    14    24 1   
    26    15    25 1   
    27    16    26 1   
    28    18    27 1   
    29    18    28 1   
@<TRIPOS>SUBSTRUCTURE
     1 0QR         1 TEMP              0 ****  ****    0 ROOT
