@<TRIPOS>MOLECULE
0QR
   28    29     1     0     0
SMALL
bcc


@<TRIPOS>ATOM
      1 CAD         -0.2370     0.7960     0.7990 ca         1 0QR       0.015000
      2 CAE          1.1230     1.0120     0.9790 ca         1 0QR      -0.195000
      3 CAF          1.8370     0.1890     1.8730 ca         1 0QR       0.195900
      4 FAG          3.1590     0.3890     2.0620 f          1 0QR      -0.127900
      5 CAH          1.1760    -0.8440     2.5670 ca         1 0QR      -0.195000
      6 CAI         -0.1840    -1.0350     2.3650 ca         1 0QR       0.015000
      7 CAC         -0.9120    -0.2220     1.4860 ca         1 0QR      -0.412500
      8 SAB         -2.5520    -0.4940     1.2330 sy         1 0QR       1.523200
      9 OAA         -2.8400    -1.8440     1.5230 o          1 0QR      -0.646300
     10 OAR         -2.8920    -0.0280    -0.0500 o          1 0QR      -0.646300
     11 NA2         -3.2690     0.3930     2.4060 nu         1 0QR      -0.876800
     12 CAK         -3.3990     1.7930     2.4980 ca         1 0QR       0.705200
     13 NA3         -3.6040     2.3180     3.7430 nb         1 0QR      -0.771000
     14 CAQ         -3.3310     2.6010     1.3280 ca         1 0QR      -0.343300
     15 CAP         -3.4670     3.9790     1.4710 ca         1 0QR      -0.033000
     16 CAO         -3.6620     4.5430     2.7230 ca         1 0QR      -0.324300
     17 CAM         -3.7200     3.6750     3.8570 ca         1 0QR       0.665200
     18 NA1         -3.8260     4.2330     5.1380 nv         1 0QR      -0.928500
     19 H1          -0.8000     1.4310     0.0910 ha         1 0QR       0.159500
     20 H2           1.6460     1.8120     0.4360 ha         1 0QR       0.159000
     21 H3           1.7420    -1.4870     3.2570 ha         1 0QR       0.159000
     22 H4          -0.7020    -1.8560     2.8940 ha         1 0QR       0.159500
     23 H5          -3.5940    -0.0900     3.2210 hn         1 0QR       0.466800
     24 H6          -3.2070     2.1570     0.3290 ha         1 0QR       0.174000
     25 H7          -3.4250     4.6230     0.5780 ha         1 0QR       0.141000
     26 H8          -3.7630     5.6280     2.8430 ha         1 0QR       0.145000
     27 H9          -4.3270     5.0910     5.1650 hn         1 0QR       0.408300
     28 H10         -4.0430     3.6050     5.8800 hn         1 0QR       0.408300
@<TRIPOS>BOND
     1     1     2 ar  
     2     1     7 ar  
     3     1    19 1   
     4     2     3 ar  
     5     2    20 1   
     6     3     4 1   
     7     3     5 ar  
     8     5     6 ar  
     9     5    21 1   
    10     6     7 ar  
    11     6    22 1   
    12     7     8 1   
    13     8     9 2   
    14     8    10 2   
    15     8    11 1   
    16    11    12 1   
    17    11    23 1   
    18    12    13 ar  
    19    12    14 ar  
    20    13    17 ar  
    21    14    15 ar  
    22    14    24 1   
    23    15    16 ar  
    24    15    25 1   
    25    16    17 ar  
    26    16    26 1   
    27    17    18 1   
    28    18    27 1   
    29    18    28 1   
@<TRIPOS>SUBSTRUCTURE
     1 0QR         1 TEMP              0 ****  ****    0 ROOT
