@<TRIPOS>MOLECULE
0QV
   34    36     1     0     0
SMALL
bcc


@<TRIPOS>ATOM
      1 CAJ          0.0000     0.0000     0.0000 c3         1 0QV      -0.010000
      2 CAH          1.5320     0.0000     0.0000 c3         1 0QV      -0.058400
      3 CAQ          2.0380     0.0000     1.4440 c3         1 0QV       0.186100
      4 OAA          3.4670    -0.0320     1.4470 oh         1 0QV      -0.578800
      5 CAI          1.5550     1.2660     2.1560 c3         1 0QV      -0.058400
      6 CAK          0.0230     1.2800     2.1810 c3         1 0QV      -0.010000
      7 NAR         -0.4730     1.1340     0.8050 n          1 0QV       0.058200
      8 CAM         -1.3450     2.0240     0.2930 cs         1 0QV       0.371600
      9 SAB         -1.9870     3.2630     1.2840 s          1 0QV      -0.649400
     10 CAN         -1.7460     1.9310    -1.1170 cc         1 0QV      -0.188400
     11 CAP         -2.9420     1.2530    -1.6520 ca         1 0QV      -0.063800
     12 CAF         -3.9910     0.5440    -1.0730 ca         1 0QV      -0.046000
     13 CAD         -4.9830     0.0200    -1.8740 ca         1 0QV      -0.121000
     14 CAC         -4.9400     0.1970    -3.2490 ca         1 0QV      -0.084000
     15 CAE         -3.9070     0.8970    -3.8340 ca         1 0QV      -0.098000
     16 CAO         -2.8960     1.4330    -3.0440 ca         1 0QV      -0.234200
     17 NAL         -1.7610     2.1630    -3.3290 na         1 0QV       0.376600
     18 CAG         -1.0890     2.4580    -2.1880 cd         1 0QV      -0.231100
     19 H1          -0.3620     0.1010    -1.0160 h1         1 0QV       0.055700
     20 H2          -0.3620    -0.9260     0.4300 h1         1 0QV       0.055700
     21 H3           1.8930    -0.8860    -0.5080 hc         1 0QV       0.035450
     22 H4           1.8930     0.8860    -0.5080 hc         1 0QV       0.035450
     23 H5           1.6520    -0.8710     1.9590 h1         1 0QV       0.000700
     24 H6           3.7640    -0.8050     1.8980 ho         1 0QV       0.392000
     25 H7           1.9140     2.1390     1.6240 hc         1 0QV       0.035450
     26 H8           1.9310     1.2740     3.1720 hc         1 0QV       0.035450
     27 H9          -0.3240     2.2200     2.5940 h1         1 0QV       0.055700
     28 H10         -0.3370     0.4560     2.7850 h1         1 0QV       0.055700
     29 H11         -4.0270     0.4040     0.0000 ha         1 0QV       0.109000
     30 H12         -5.8010    -0.5330    -1.4270 ha         1 0QV       0.105000
     31 H13         -5.7250    -0.2190    -3.8690 ha         1 0QV       0.103000
     32 H14         -3.8830     1.0300    -4.9090 ha         1 0QV       0.100000
     33 H15         -1.4760     2.4410    -4.2480 hn         1 0QV       0.115700
     34 H16         -0.1700     3.0290    -2.1360 h4         1 0QV       0.147000
@<TRIPOS>BOND
     1     1     2 1   
     2     1     7 1   
     3     1    19 1   
     4     1    20 1   
     5     2     3 1   
     6     2    21 1   
     7     2    22 1   
     8     3     4 1   
     9     3     5 1   
    10     3    23 1   
    11     4    24 1   
    12     5     6 1   
    13     5    25 1   
    14     5    26 1   
    15     6     7 1   
    16     6    27 1   
    17     6    28 1   
    18     7     8 1   
    19     8     9 2   
    20     8    10 1   
    21    10    11 1   
    22    10    18 2   
    23    11    12 ar  
    24    11    16 ar  
    25    12    13 ar  
    26    12    29 1   
    27    13    14 ar  
    28    13    30 1   
    29    14    15 ar  
    30    14    31 1   
    31    15    16 ar  
    32    15    32 1   
    33    16    17 1   
    34    17    18 1   
    35    17    33 1   
    36    18    34 1   
@<TRIPOS>SUBSTRUCTURE
     1 0QV         1 TEMP              0 ****  ****    0 ROOT
