@<TRIPOS>MOLECULE
0QV
   34    36     1     0     0
SMALL
bcc


@<TRIPOS>ATOM
      1 CAJ          0.0890    -0.2420    -0.1010 c3         1 0QV       0.069500
      2 CAH          1.6180    -0.1860    -0.1350 c3         1 0QV      -0.111900
      3 CAQ          2.2090    -0.0800     1.2660 c3         1 0QV       0.138100
      4 OAA          1.9070     1.2280     1.7400 oh         1 0QV      -0.602800
      5 CAI          1.6400    -1.1590     2.1810 c3         1 0QV      -0.111900
      6 CAK          0.1130    -1.1770     2.1460 c3         1 0QV       0.069500
      7 NAR         -0.4350    -1.2470     0.8020 n          1 0QV      -0.385800
      8 CAM         -1.1500    -2.3450     0.3910 cs         1 0QV       0.472600
      9 SAB         -1.4980    -3.5890     1.3340 s          1 0QV      -0.512400
     10 CAN         -1.6830    -2.3460    -0.9690 cc         1 0QV      -0.177400
     11 CAP         -1.4770    -3.3760    -1.9690 ca         1 0QV      -0.058800
     12 CAF         -0.7460    -4.5650    -2.0090 ca         1 0QV      -0.073000
     13 CAD         -0.7720    -5.3260    -3.1680 ca         1 0QV      -0.153000
     14 CAC         -1.5180    -4.9270    -4.2910 ca         1 0QV      -0.111000
     15 CAE         -2.2630    -3.7570    -4.2900 ca         1 0QV      -0.144000
     16 CAO         -2.2470    -2.9760    -3.1250 ca         1 0QV      -0.052200
     17 NAL         -2.8750    -1.7590    -2.8320 na         1 0QV      -0.185400
     18 CAG         -2.5470    -1.3970    -1.5280 cd         1 0QV      -0.075100
     19 H1          -0.2880    -0.4170    -1.1460 h1         1 0QV       0.074450
     20 H2          -0.2900     0.7610     0.2560 h1         1 0QV       0.074450
     21 H3           1.9180     0.7110    -0.7350 hc         1 0QV       0.061450
     22 H4           2.0330    -1.1010    -0.6290 hc         1 0QV       0.061450
     23 H5           3.3300    -0.1920     1.2110 h1         1 0QV       0.036700
     24 H6           2.2130     1.2730     2.6530 ho         1 0QV       0.401000
     25 H7           1.9610    -0.9750     3.2380 hc         1 0QV       0.061450
     26 H8           2.0460    -2.1540     1.8650 hc         1 0QV       0.061450
     27 H9          -0.2660    -2.0530     2.7520 h1         1 0QV       0.074450
     28 H10         -0.2680    -0.2200     2.6070 h1         1 0QV       0.074450
     29 H11         -0.1790    -4.8910    -1.1230 ha         1 0QV       0.150000
     30 H12         -0.2040    -6.2680    -3.2130 ha         1 0QV       0.133000
     31 H13         -1.5120    -5.5620    -5.1890 ha         1 0QV       0.131000
     32 H14         -2.8470    -3.4530    -5.1690 ha         1 0QV       0.133000
     33 H15         -3.5620    -1.3280    -3.3910 hn         1 0QV       0.301700
     34 H16         -2.9520    -0.4870    -1.0790 h4         1 0QV       0.173000
@<TRIPOS>BOND
     1     1     2 1   
     2     1     7 1   
     3     1    19 1   
     4     1    20 1   
     5     2     3 1   
     6     2    21 1   
     7     2    22 1   
     8     3     4 1   
     9     3     5 1   
    10     3    23 1   
    11     4    24 1   
    12     5     6 1   
    13     5    25 1   
    14     5    26 1   
    15     6     7 1   
    16     6    27 1   
    17     6    28 1   
    18     7     8 1   
    19     8     9 2   
    20     8    10 1   
    21    10    11 1   
    22    10    18 2   
    23    11    12 ar  
    24    11    16 ar  
    25    12    13 ar  
    26    12    29 1   
    27    13    14 ar  
    28    13    30 1   
    29    14    15 ar  
    30    14    31 1   
    31    15    16 ar  
    32    15    32 1   
    33    16    17 1   
    34    17    18 1   
    35    17    33 1   
    36    18    34 1   
@<TRIPOS>SUBSTRUCTURE
     1 0QV         1 TEMP              0 ****  ****    0 ROOT
