@<TRIPOS>MOLECULE
molecule
   34    36     1     0     0
SMALL
bcc


@<TRIPOS>ATOM
      1 CAJ          0.0000     0.0000     0.0000 c3         1 0QV       0.078500
      2 CAH          1.5320     0.0000     0.0000 c3         1 0QV      -0.109400
      3 CAQ          2.0380     0.0000     1.4440 c3         1 0QV       0.144100
      4 OAA          3.4670    -0.0320     1.4470 oh         1 0QV      -0.601800
      5 CAI          1.5550     1.2660     2.1560 c3         1 0QV      -0.109400
      6 CAK          0.0230     1.2800     2.1810 c3         1 0QV       0.078500
      7 NAR         -0.4730     1.1340     0.8050 n          1 0QV      -0.372800
      8 CAM         -1.3450     2.0240     0.2930 cs         1 0QV       0.516600
      9 SAB         -1.9870     3.2630     1.2840 s          1 0QV      -0.620400
     10 CAN         -1.7460     1.9310    -1.1170 cc         1 0QV      -0.193400
     11 CAP         -2.9420     1.2530    -1.6520 ca         1 0QV      -0.073800
     12 CAF         -3.9910     0.5440    -1.0730 ca         1 0QV      -0.077000
     13 CAD         -4.9830     0.0200    -1.8740 ca         1 0QV      -0.150000
     14 CAC         -4.9400     0.1970    -3.2490 ca         1 0QV      -0.106000
     15 CAE         -3.9070     0.8970    -3.8340 ca         1 0QV      -0.141000
     16 CAO         -2.8960     1.4330    -3.0440 ca         1 0QV      -0.043200
     17 NAL         -1.7610     2.1630    -3.3290 na         1 0QV      -0.171400
     18 CAG         -1.0890     2.4580    -2.1880 cd         1 0QV      -0.060100
     19 H1          -0.3620     0.1010    -1.0160 h1         1 0QV       0.076950
     20 H2          -0.3620    -0.9260     0.4300 h1         1 0QV       0.076950
     21 H3           1.8930    -0.8860    -0.5080 hc         1 0QV       0.064200
     22 H4           1.8930     0.8860    -0.5080 hc         1 0QV       0.064200
     23 H5           1.6520    -0.8710     1.9590 h1         1 0QV       0.031700
     24 H6           3.7640    -0.8050     1.8980 ho         1 0QV       0.404000
     25 H7           1.9140     2.1390     1.6240 hc         1 0QV       0.064200
     26 H8           1.9310     1.2740     3.1720 hc         1 0QV       0.064200
     27 H9          -0.3240     2.2200     2.5940 h1         1 0QV       0.076950
     28 H10         -0.3370     0.4560     2.7850 h1         1 0QV       0.076950
     29 H11         -4.0270     0.4040     0.0000 ha         1 0QV       0.140000
     30 H12         -5.8010    -0.5330    -1.4270 ha         1 0QV       0.133000
     31 H13         -5.7250    -0.2190    -3.8690 ha         1 0QV       0.133000
     32 H14         -3.8830     1.0300    -4.9090 ha         1 0QV       0.127000
     33 H15         -1.4760     2.4410    -4.2480 hn         1 0QV       0.301700
     34 H16         -0.1700     3.0290    -2.1360 h4         1 0QV       0.176000
@<TRIPOS>BOND
     1     4     3 1   
     2     3     5 1   
     3     3     2 1   
     4     5     6 1   
     5     2     1 1   
     6     6     7 1   
     7     1     7 1   
     8     7     8 1   
     9     9     8 2   
    10     8    10 1   
    11    10    11 1   
    12    10    18 2   
    13    12    11 ar  
    14    12    13 ar  
    15    11    16 ar  
    16    18    17 1   
    17    13    14 ar  
    18    16    17 1   
    19    16    15 ar  
    20    14    15 ar  
    21     1    19 1   
    22     1    20 1   
    23     2    21 1   
    24     2    22 1   
    25     3    23 1   
    26     4    24 1   
    27     5    25 1   
    28     5    26 1   
    29     6    27 1   
    30     6    28 1   
    31    12    29 1   
    32    13    30 1   
    33    14    31 1   
    34    15    32 1   
    35    17    33 1   
    36    18    34 1   
@<TRIPOS>SUBSTRUCTURE
     1 0QV         1 TEMP              0 ****  ****    0 ROOT
