@<TRIPOS>MOLECULE
0QW
   27    28     1     0     0
SMALL
bcc


@<TRIPOS>ATOM
      1 C8           0.0100    -0.0610    -0.0370 c3         1 0QW       0.078000
      2 C9           1.5000     0.2990     0.0540 c3         1 0QW      -0.089900
      3 C10          1.9770    -0.1510     1.4310 c3         1 0QW      -0.089900
      4 C11          0.7690    -0.8030     2.1240 c3         1 0QW       0.078000
      5 N1          -0.3610    -0.6970     1.2180 n          1 0QW      -0.374800
      6 C7          -1.6050    -1.1940     1.4420 cs         1 0QW       0.453000
      7 S1          -2.8140    -1.0710     0.4060 s          1 0QW      -0.514400
      8 C6          -1.8530    -1.8640     2.7410 ca         1 0QW      -0.133600
      9 C5          -2.7080    -1.2640     3.6730 ca         1 0QW      -0.060000
     10 C4          -3.0180    -1.9040     4.8700 ca         1 0QW      -0.164000
     11 C3          -2.4860    -3.1630     5.1510 ca         1 0QW      -0.081000
     12 C2          -1.6340    -3.7820     4.2420 ca         1 0QW      -0.213000
     13 C1          -1.3110    -3.1290     3.0420 ca         1 0QW       0.141100
     14 O1          -0.4460    -3.6850     2.1260 oh         1 0QW      -0.499100
     15 H1          -0.1930    -0.7660    -0.8920 h1         1 0QW       0.065950
     16 H2          -0.6260     0.8550    -0.1920 h1         1 0QW       0.065950
     17 H3           1.6390     1.4000    -0.0770 hc         1 0QW       0.055200
     18 H4           2.0710    -0.2180    -0.7550 hc         1 0QW       0.055200
     19 H5           2.8140    -0.8870     1.3450 hc         1 0QW       0.055200
     20 H6           2.3430     0.7170     2.0320 hc         1 0QW       0.055200
     21 H7           0.5280    -0.2800     3.0900 h1         1 0QW       0.065950
     22 H8           0.9750    -1.8870     2.3520 h1         1 0QW       0.065950
     23 H9          -3.1510    -0.2820     3.4400 ha         1 0QW       0.151000
     24 H10         -3.6930    -1.4190     5.5910 ha         1 0QW       0.140000
     25 H11         -2.7410    -3.6720     6.0930 ha         1 0QW       0.136000
     26 H12         -1.2170    -4.7760     4.4540 ha         1 0QW       0.136000
     27 H13         -0.3150    -4.6150     2.3660 ho         1 0QW       0.424000
@<TRIPOS>BOND
     1     1     2 1   
     2     1     5 1   
     3     1    15 1   
     4     1    16 1   
     5     2     3 1   
     6     2    17 1   
     7     2    18 1   
     8     3     4 1   
     9     3    19 1   
    10     3    20 1   
    11     4     5 1   
    12     4    21 1   
    13     4    22 1   
    14     5     6 1   
    15     6     7 2   
    16     6     8 1   
    17     8     9 ar  
    18     8    13 ar  
    19     9    10 ar  
    20     9    23 1   
    21    10    11 ar  
    22    10    24 1   
    23    11    12 ar  
    24    11    25 1   
    25    12    13 ar  
    26    12    26 1   
    27    13    14 1   
    28    14    27 1   
@<TRIPOS>SUBSTRUCTURE
     1 0QW         1 TEMP              0 ****  ****    0 ROOT
