@<TRIPOS>MOLECULE
molecule
   27    28     1     0     0
SMALL
bcc


@<TRIPOS>ATOM
      1 C8           0.0000     0.0000     0.0000 c3         1 0QW       0.081000
      2 C9           1.5430     0.0000     0.0000 c3         1 0QW      -0.098900
      3 C10          1.8910     0.0000     1.5130 c3         1 0QW      -0.098900
      4 C11          0.7560    -0.8810     2.0910 c3         1 0QW       0.081000
      5 N1          -0.4370    -0.5310     1.2990 n          1 0QW      -0.364800
      6 C7          -1.7160    -0.6720     1.7010 cs         1 0QW       0.504000
      7 S1          -2.9910    -0.0970     0.7150 s          1 0QW      -0.620400
      8 C6          -2.0160    -1.3220     2.9890 ca         1 0QW      -0.119600
      9 C5          -2.2130    -0.5500     4.1370 ca         1 0QW      -0.077000
     10 C4          -2.4940    -1.1640     5.3380 ca         1 0QW      -0.148000
     11 C3          -2.5830    -2.5450     5.4130 ca         1 0QW      -0.093000
     12 C2          -2.3900    -3.3200     4.2860 ca         1 0QW      -0.185000
     13 C1          -2.1120    -2.7180     3.0680 ca         1 0QW       0.143100
     14 O1          -1.9280    -3.4780     1.9590 oh         1 0QW      -0.512100
     15 H1          -0.3670     1.0110    -0.1260 h1         1 0QW       0.068700
     16 H2          -0.3670    -0.6340    -0.7980 h1         1 0QW       0.068700
     17 H3           1.9240    -0.8930    -0.4790 hc         1 0QW       0.060450
     18 H4           1.9240     0.8940    -0.4790 hc         1 0QW       0.060450
     19 H5           2.8590    -0.4540     1.6860 hc         1 0QW       0.060450
     20 H6           1.8450     1.0030     1.9190 hc         1 0QW       0.060450
     21 H7           0.5950    -0.6470     3.1370 h1         1 0QW       0.068700
     22 H8           0.9950    -1.9310     1.9660 h1         1 0QW       0.068700
     23 H9          -2.1450     0.5300     4.0830 ha         1 0QW       0.147000
     24 H10         -2.6470    -0.5650     6.2270 ha         1 0QW       0.138000
     25 H11         -2.8020    -3.0200     6.3620 ha         1 0QW       0.135000
     26 H12         -2.4640    -4.3990     4.3530 ha         1 0QW       0.141000
     27 H13         -2.6820    -4.0290     1.8270 ho         1 0QW       0.432000
@<TRIPOS>BOND
     1     7     6 2
     2     1     5 1
     3     1     2 1
     4     9    10 ar
     5     9     8 ar
     6     6     5 1
     7     6     8 1
     8     5     4 1
     9    10    11 ar
    10     8    13 ar
    11     2     3 1
    12     4     3 1
    13    11    12 ar
    14    13    12 ar
    15    13    14 1
    16     1    15 1
    17     1    16 1
    18     2    17 1
    19     2    18 1
    20     3    19 1
    21     3    20 1
    22     4    21 1
    23     4    22 1
    24     9    23 1
    25    10    24 1
    26    11    25 1
    27    12    26 1
    28    14    27 1
@<TRIPOS>SUBSTRUCTURE
     1 0QW         1 TEMP              0 ****  ****    0 ROOT
