@<TRIPOS>MOLECULE
0QW
   27    28     1     0     0
SMALL
bcc


@<TRIPOS>ATOM
      1 C8           0.0000     0.0000     0.0000 c3         1 0QW       0.003500
      2 C9           1.5430     0.0000     0.0000 c3         1 0QW      -0.033400
      3 C10          1.8910     0.0000     1.5130 c3         1 0QW      -0.033400
      4 C11          0.7560    -0.8810     2.0910 c3         1 0QW       0.003500
      5 N1          -0.4370    -0.5310     1.2990 n          1 0QW       0.071200
      6 C7          -1.7160    -0.6720     1.7010 cs         1 0QW       0.343000
      7 S1          -2.9910    -0.0970     0.7150 s          1 0QW      -0.652400
      8 C6          -2.0160    -1.3220     2.9890 ca         1 0QW      -0.133600
      9 C5          -2.2130    -0.5500     4.1370 ca         1 0QW      -0.042000
     10 C4          -2.4940    -1.1640     5.3380 ca         1 0QW      -0.127000
     11 C3          -2.5830    -2.5450     5.4130 ca         1 0QW      -0.058000
     12 C2          -2.3900    -3.3200     4.2860 ca         1 0QW      -0.170000
     13 C1          -2.1120    -2.7180     3.0680 ca         1 0QW       0.164100
     14 O1          -1.9280    -3.4780     1.9590 oh         1 0QW      -0.496100
     15 H1          -0.3670     1.0110    -0.1260 h1         1 0QW       0.045200
     16 H2          -0.3670    -0.6340    -0.7980 h1         1 0QW       0.045200
     17 H3           1.9240    -0.8930    -0.4790 hc         1 0QW       0.029950
     18 H4           1.9240     0.8940    -0.4790 hc         1 0QW       0.029950
     19 H5           2.8590    -0.4540     1.6860 hc         1 0QW       0.029950
     20 H6           1.8450     1.0030     1.9190 hc         1 0QW       0.029950
     21 H7           0.5950    -0.6470     3.1370 h1         1 0QW       0.045200
     22 H8           0.9950    -1.9310     1.9660 h1         1 0QW       0.045200
     23 H9          -2.1450     0.5300     4.0830 ha         1 0QW       0.115000
     24 H10         -2.6470    -0.5650     6.2270 ha         1 0QW       0.109000
     25 H11         -2.8020    -3.0200     6.3620 ha         1 0QW       0.104000
     26 H12         -2.4640    -4.3990     4.3530 ha         1 0QW       0.115000
     27 H13         -2.6820    -4.0290     1.8270 ho         1 0QW       0.417000
@<TRIPOS>BOND
     1     1     2 1   
     2     1     5 1   
     3     1    15 1   
     4     1    16 1   
     5     2     3 1   
     6     2    17 1   
     7     2    18 1   
     8     3     4 1   
     9     3    19 1   
    10     3    20 1   
    11     4     5 1   
    12     4    21 1   
    13     4    22 1   
    14     5     6 1   
    15     6     7 2   
    16     6     8 1   
    17     8     9 ar  
    18     8    13 ar  
    19     9    10 ar  
    20     9    23 1   
    21    10    11 ar  
    22    10    24 1   
    23    11    12 ar  
    24    11    25 1   
    25    12    13 ar  
    26    12    26 1   
    27    13    14 1   
    28    14    27 1   
@<TRIPOS>SUBSTRUCTURE
     1 0QW         1 TEMP              0 ****  ****    0 ROOT
