@<TRIPOS>MOLECULE
0QX
   31    34     1     0     0
SMALL
bcc


@<TRIPOS>ATOM
      1 CAS          0.0000     0.0000     0.0000 ca         1 0QX      -0.076800
      2 CAE          1.3960     0.0000     0.0000 ca         1 0QX      -0.029000
      3 CAB          2.0740     0.0000     1.1860 ca         1 0QX      -0.134000
      4 CAA          1.3860    -0.0010     2.3920 ca         1 0QX      -0.082000
      5 CAD          0.0080    -0.0010     2.4150 ca         1 0QX      -0.108000
      6 CAQ         -0.7020    -0.0000     1.2190 ca         1 0QX      -0.227200
      7 NAL         -2.0450    -0.0010     0.9150 na         1 0QX       0.358600
      8 CAH         -2.2140     0.0010    -0.4430 cc         1 0QX      -0.266100
      9 CAN         -1.0180     0.0060    -1.0530 cd         1 0QX      -0.153400
     10 CAI         -0.7690     0.0090    -2.5400 c3         1 0QX       0.089500
     11 CAO         -0.5590    -1.4050    -3.0160 cc         1 0QX       0.202800
     12 NAM         -1.2630    -2.0050    -4.0150 na         1 0QX       0.271700
     13 CAR         -0.7760    -3.2840    -4.1500 ca         1 0QX      -0.262200
     14 CAF         -1.0650    -4.3690    -4.9690 ca         1 0QX      -0.209300
     15 CAC         -0.3410    -5.5320    -4.8100 ca         1 0QX       0.406200
     16 NAJ          0.6140    -5.6270    -3.9000 nb         1 0QX      -0.600000
     17 CAG          0.9270    -4.6290    -3.0990 ca         1 0QX       0.471200
     18 CAP          0.2470    -3.4160    -3.1890 ca         1 0QX      -0.057900
     19 NAK          0.3280    -2.2300    -2.5370 nd         1 0QX      -0.488100
     20 H1           1.9400     0.0000    -0.9370 ha         1 0QX       0.107000
     21 H2           3.1570     0.0000     1.1860 ha         1 0QX       0.102000
     22 H3           1.9380    -0.0010     3.3240 ha         1 0QX       0.099000
     23 H4          -0.5190    -0.0020     3.3610 ha         1 0QX       0.098000
     24 H5          -2.7870    -0.0040     1.5860 hn         1 0QX       0.112700
     25 H6          -3.1710    -0.0020    -0.9510 h4         1 0QX       0.135000
     26 H7          -1.6250     0.4370    -3.0480 hc         1 0QX       0.019200
     27 H8           0.1130     0.5990    -2.7580 hc         1 0QX       0.019200
     28 H9          -1.9140    -1.5560    -4.6280 hn         1 0QX       0.126700
     29 H10         -1.8450    -4.3030    -5.7180 ha         1 0QX       0.108000
     30 H11         -0.5580    -6.3840    -5.4430 h4         1 0QX      -0.020900
     31 H12          1.7170    -4.7520    -2.3680 h4         1 0QX      -0.013900
@<TRIPOS>BOND
     1     1     2 ar  
     2     1     6 ar  
     3     1     9 1   
     4     2     3 ar  
     5     2    20 1   
     6     3     4 ar  
     7     3    21 1   
     8     4     5 ar  
     9     4    22 1   
    10     5     6 ar  
    11     5    23 1   
    12     6     7 1   
    13     7     8 1   
    14     7    24 1   
    15     8     9 2   
    16     8    25 1   
    17     9    10 1   
    18    10    11 1   
    19    10    26 1   
    20    10    27 1   
    21    11    12 1   
    22    11    19 2   
    23    12    13 1   
    24    12    28 1   
    25    13    14 ar  
    26    13    18 ar  
    27    14    15 ar  
    28    14    29 1   
    29    15    16 ar  
    30    15    30 1   
    31    16    17 ar  
    32    17    18 ar  
    33    17    31 1   
    34    18    19 1   
@<TRIPOS>SUBSTRUCTURE
     1 0QX         1 TEMP              0 ****  ****    0 ROOT
