@<TRIPOS>MOLECULE
molecule
   31    34     1     0     0
SMALL
bcc


@<TRIPOS>ATOM
      1 CAS          0.0000     0.0000     0.0000 ca         1 0QX      -0.081800
      2 CAE          1.3960     0.0000     0.0000 ca         1 0QX      -0.063000
      3 CAB          2.0740     0.0000     1.1860 ca         1 0QX      -0.158000
      4 CAA          1.3860    -0.0010     2.3920 ca         1 0QX      -0.106000
      5 CAD          0.0080    -0.0010     2.4150 ca         1 0QX      -0.147000
      6 CAQ         -0.7020    -0.0000     1.2190 ca         1 0QX      -0.038200
      7 NAL         -2.0450    -0.0010     0.9150 na         1 0QX      -0.180400
      8 CAH         -2.2140     0.0010    -0.4430 cc         1 0QX      -0.091100
      9 CAN         -1.0180     0.0060    -1.0530 cd         1 0QX      -0.156400
     10 CAI         -0.7690     0.0090    -2.5400 c3         1 0QX       0.002500
     11 CAO         -0.5590    -1.4050    -3.0160 cc         1 0QX       0.424800
     12 NAM         -1.2630    -2.0050    -4.0150 na         1 0QX      -0.262300
     13 CAR         -0.7760    -3.2840    -4.1500 ca         1 0QX      -0.075200
     14 CAF         -1.0650    -4.3690    -4.9690 ca         1 0QX      -0.254300
     15 CAC         -0.3410    -5.5320    -4.8100 ca         1 0QX       0.421200
     16 NAJ          0.6140    -5.6270    -3.9000 nb         1 0QX      -0.701000
     17 CAG          0.9270    -4.6290    -3.0990 ca         1 0QX       0.481200
     18 CAP          0.2470    -3.4160    -3.1890 ca         1 0QX      -0.030900
     19 NAK          0.3280    -2.2300    -2.5370 nd         1 0QX      -0.578100
     20 H1           1.9400     0.0000    -0.9370 ha         1 0QX       0.137000
     21 H2           3.1570     0.0000     1.1860 ha         1 0QX       0.129000
     22 H3           1.9380    -0.0010     3.3240 ha         1 0QX       0.129000
     23 H4          -0.5190    -0.0020     3.3610 ha         1 0QX       0.124000
     24 H5          -2.7870    -0.0040     1.5860 hn         1 0QX       0.296700
     25 H6          -3.1710    -0.0020    -0.9510 h4         1 0QX       0.161000
     26 H7          -1.6250     0.4370    -3.0480 hc         1 0QX       0.062200
     27 H8           0.1130     0.5990    -2.7580 hc         1 0QX       0.062200
     28 H9          -1.9140    -1.5560    -4.6280 hn         1 0QX       0.301700
     29 H10         -1.8450    -4.3030    -5.7180 ha         1 0QX       0.132000
     30 H11         -0.5580    -6.3840    -5.4430 h4         1 0QX       0.024100
     31 H12          1.7170    -4.7520    -2.3680 h4         1 0QX       0.036100
@<TRIPOS>BOND
     1     7     8 1   
     2     7     6 1   
     3     8     9 2   
     4     5     6 ar  
     5     5     4 ar  
     6     6     1 ar  
     7     9     1 1   
     8     9    10 1   
     9     4     3 ar  
    10     1     2 ar  
    11    10    11 1   
    12     2     3 ar  
    13    12    11 1   
    14    12    13 1   
    15    11    19 2   
    16    13    14 ar  
    17    13    18 ar  
    18    19    18 1   
    19    14    15 ar  
    20    18    17 ar  
    21    15    16 ar  
    22    17    16 ar  
    23     2    20 1   
    24     3    21 1   
    25     4    22 1   
    26     5    23 1   
    27     7    24 1   
    28     8    25 1   
    29    10    26 1   
    30    10    27 1   
    31    12    28 1   
    32    14    29 1   
    33    15    30 1   
    34    17    31 1   
@<TRIPOS>SUBSTRUCTURE
     1 0QX         1 TEMP              0 ****  ****    0 ROOT
