@<TRIPOS>MOLECULE
0QX
   31    34     1     0     0
SMALL
bcc


@<TRIPOS>ATOM
      1 CAS         -0.1120    -0.0970     0.0010 ca         1 0QX      -0.098800
      2 CAE          1.0810    -0.6860     0.4280 ca         1 0QX      -0.103000
      3 CAB          1.2850    -0.8780     1.7860 ca         1 0QX      -0.149000
      4 CAA          0.3190    -0.4910     2.7340 ca         1 0QX      -0.113000
      5 CAD         -0.8750     0.1010     2.3540 ca         1 0QX      -0.138000
      6 CAQ         -1.0970     0.3020     0.9820 ca         1 0QX      -0.047200
      7 NAL         -2.1800     0.8660     0.3030 na         1 0QX      -0.188400
      8 CAH         -1.9090     0.8350    -1.0640 cc         1 0QX      -0.076100
      9 CAN         -0.6590     0.2540    -1.2940 cd         1 0QX      -0.170400
     10 CAI         -0.0170     0.0570    -2.6000 c3         1 0QX      -0.020500
     11 CAO         -0.1350    -1.3530    -3.0930 cc         1 0QX       0.419800
     12 NAM         -0.0600    -2.4560    -2.2060 na         1 0QX      -0.270300
     13 CAR         -0.1910    -3.6010    -2.9850 ca         1 0QX      -0.052200
     14 CAF         -0.2050    -4.9750    -2.7090 ca         1 0QX      -0.247300
     15 CAC         -0.3450    -5.8200    -3.8150 ca         1 0QX       0.398200
     16 NAJ         -0.4630    -5.4120    -5.1050 nb         1 0QX      -0.685000
     17 CAG         -0.4490    -4.1040    -5.3780 ca         1 0QX       0.458200
     18 CAP         -0.3170    -3.1330    -4.3590 ca         1 0QX      -0.053900
     19 NAK         -0.2790    -1.7290    -4.3840 nd         1 0QX      -0.559100
     20 H1           1.8450    -0.9780    -0.3060 ha         1 0QX       0.137000
     21 H2           2.2200    -1.3380     2.1380 ha         1 0QX       0.134000
     22 H3           0.5220    -0.6620     3.8020 ha         1 0QX       0.134000
     23 H4          -1.6230     0.4030     3.0990 ha         1 0QX       0.136000
     24 H5          -2.9910     1.2330     0.7240 hn         1 0QX       0.303700
     25 H6          -2.6280     1.2290    -1.7870 h4         1 0QX       0.174000
     26 H7           1.0790     0.3050    -2.5270 hc         1 0QX       0.080200
     27 H8          -0.4720     0.7470    -3.3640 hc         1 0QX       0.080200
     28 H9          -0.0360    -2.3980    -1.2200 hn         1 0QX       0.318700
     29 H10         -0.1130    -5.3700    -1.6920 ha         1 0QX       0.144000
     30 H11         -0.3650    -6.9160    -3.6740 h4         1 0QX       0.020100
     31 H12         -0.5460    -3.8090    -6.4370 h4         1 0QX       0.034100
@<TRIPOS>BOND
     1     1     2 ar  
     2     1     6 ar  
     3     1     9 1   
     4     2     3 ar  
     5     2    20 1   
     6     3     4 ar  
     7     3    21 1   
     8     4     5 ar  
     9     4    22 1   
    10     5     6 ar  
    11     5    23 1   
    12     6     7 1   
    13     7     8 1   
    14     7    24 1   
    15     8     9 2   
    16     8    25 1   
    17     9    10 1   
    18    10    11 1   
    19    10    26 1   
    20    10    27 1   
    21    11    12 1   
    22    11    19 2   
    23    12    13 1   
    24    12    28 1   
    25    13    14 ar  
    26    13    18 ar  
    27    14    15 ar  
    28    14    29 1   
    29    15    16 ar  
    30    15    30 1   
    31    16    17 ar  
    32    17    18 ar  
    33    17    31 1   
    34    18    19 1   
@<TRIPOS>SUBSTRUCTURE
     1 0QX         1 TEMP              0 ****  ****    0 ROOT
