@<TRIPOS>MOLECULE
0QY
   48    52     1     0     0
SMALL
bcc


@<TRIPOS>ATOM
      1 O01         -0.2600    -1.3600    -0.2020 o          1 0QY      -0.607100
      2 C02          0.9250    -0.9880    -0.1030 c          1 0QY       0.665100
      3 C03          1.7110    -1.3810     1.1690 c3         1 0QY       0.092500
      4 N04          2.9350    -0.6050     1.3940 n7         1 0QY      -0.815200
      5 C05          2.7320     0.2520     2.5580 c3         1 0QY       0.147800
      6 C06          1.4510    -0.1750     3.2920 c3         1 0QY      -0.105400
      7 C07          0.7940    -1.2260     2.4070 c3         1 0QY      -0.092400
      8 N08          1.5920    -0.3130    -1.1070 ns         1 0QY      -0.452100
      9 C09          1.0380     0.1490    -2.3180 ca         1 0QY       0.037600
     10 C10          1.7550     1.1670    -3.0180 ca         1 0QY      -0.160000
     11 C11          1.3250     1.6670    -4.2340 ca         1 0QY      -0.111000
     12 C12         -0.1470    -0.3790    -2.8520 ca         1 0QY      -0.095000
     13 C13         -0.6040     0.1180    -4.0780 ca         1 0QY       0.089400
     14 C14          0.1440     1.1500    -4.7740 ca         1 0QY      -0.099200
     15 N15         -0.5530     1.3990    -5.9590 na         1 0QY      -0.274300
     16 C16         -1.6940     0.5650    -5.9330 cc         1 0QY       0.420800
     17 C17         -2.6860     0.5590    -7.0570 c3         1 0QY      -0.021500
     18 C18         -2.9350     1.9030    -7.5960 cc         1 0QY      -0.165400
     19 C19         -4.0340     2.7170    -7.3130 cd         1 0QY      -0.078100
     20 N20         -3.9380     3.9160    -8.0200 na         1 0QY      -0.189400
     21 C21         -2.7640     3.8910    -8.7760 ca         1 0QY      -0.047200
     22 C22         -2.2110     4.8420    -9.6490 ca         1 0QY      -0.140000
     23 C23         -1.0130     4.5280   -10.2700 ca         1 0QY      -0.114000
     24 C24         -0.3640     3.3000   -10.0430 ca         1 0QY      -0.151000
     25 C25         -0.8970     2.3510    -9.1840 ca         1 0QY      -0.101000
     26 C26         -2.1010     2.6280    -8.5330 ca         1 0QY      -0.097800
     27 N27         -1.7450    -0.2200    -4.8340 nd         1 0QY      -0.573100
     28 H1           1.9580    -2.4720     1.0110 h1         1 0QY       0.071700
     29 H2           3.7080    -1.2260     1.5390 hn         1 0QY       0.361800
     30 H4           2.6270     1.3070     2.1820 h1         1 0QY       0.049700
     31 H5           3.6190     0.2200     3.2450 h1         1 0QY       0.049700
     32 H6           1.6940    -0.5940     4.2990 hc         1 0QY       0.051200
     33 H7           0.7770     0.7020     3.4420 hc         1 0QY       0.051200
     34 H8          -0.2390    -0.9230     2.1030 hc         1 0QY       0.069200
     35 H9           0.7150    -2.2070     2.9380 hc         1 0QY       0.069200
     36 H10          2.5060     0.0300    -0.9050 hn         1 0QY       0.332500
     37 H11          2.6830     1.5730    -2.5860 ha         1 0QY       0.129000
     38 H12          1.8950     2.4480    -4.7540 ha         1 0QY       0.134000
     39 H13         -0.7240    -1.1600    -2.3300 ha         1 0QY       0.185000
     40 H14         -0.3910     2.1290    -6.6020 hn         1 0QY       0.312700
     41 H15         -3.6470     0.1030    -6.6910 hc         1 0QY       0.078200
     42 H16         -2.2810    -0.1080    -7.8700 hc         1 0QY       0.078200
     43 H17         -4.8810     2.5230    -6.6520 h4         1 0QY       0.174000
     44 H18         -4.5870     4.6560    -7.9940 hn         1 0QY       0.302700
     45 H19         -2.7140     5.8010    -9.8340 ha         1 0QY       0.134000
     46 H20         -0.5550     5.2530   -10.9600 ha         1 0QY       0.132000
     47 H21          0.5830     3.0950   -10.5640 ha         1 0QY       0.133000
     48 H22         -0.3910     1.3890    -9.0190 ha         1 0QY       0.138000
@<TRIPOS>BOND
     1     1     2 2   
     2     2     3 1   
     3     2     8 1   
     4     3     4 1   
     5     3     7 1   
     6     3    28 1   
     7     4     5 1   
     8     4    29 1   
     9     5     6 1   
    10     5    30 1   
    11     5    31 1   
    12     6     7 1   
    13     6    32 1   
    14     6    33 1   
    15     7    34 1   
    16     7    35 1   
    17     8     9 1   
    18     8    36 1   
    19     9    10 ar  
    20     9    12 ar  
    21    10    11 ar  
    22    10    37 1   
    23    11    14 ar  
    24    11    38 1   
    25    12    13 ar  
    26    12    39 1   
    27    13    14 ar  
    28    13    27 1   
    29    14    15 1   
    30    15    16 1   
    31    15    40 1   
    32    16    17 1   
    33    16    27 2   
    34    17    18 1   
    35    17    41 1   
    36    17    42 1   
    37    18    19 2   
    38    18    26 1   
    39    19    20 1   
    40    19    43 1   
    41    20    21 1   
    42    20    44 1   
    43    21    22 ar  
    44    21    26 ar  
    45    22    23 ar  
    46    22    45 1   
    47    23    24 ar  
    48    23    46 1   
    49    24    25 ar  
    50    24    47 1   
    51    25    26 ar  
    52    25    48 1   
@<TRIPOS>SUBSTRUCTURE
     1 0QY         1 TEMP              0 ****  ****    0 ROOT
