@<TRIPOS>MOLECULE
0QY
   48    52     1     0     0
SMALL
bcc


@<TRIPOS>ATOM
      1 O01          0.0000     0.0000     0.0000 o          1 0QY      -0.594100
      2 C02          1.2130     0.0000     0.0000 c          1 0QY       0.553100
      3 C03          1.9670     0.0000     1.3040 c3         1 0QY       0.040500
      4 N04          1.0630     0.3650     2.4250 n7         1 0QY      -0.532200
      5 C05          1.7370    -0.1820     3.6300 c3         1 0QY       0.137800
      6 C06          2.3020    -1.5440     3.1760 c3         1 0QY      -0.024400
      7 C07          2.4540    -1.4250     1.6450 c3         1 0QY      -0.016400
      8 N08          1.8860    -0.0070    -1.1680 ns         1 0QY      -0.042100
      9 C09          1.1890    -0.1250    -2.3780 ca         1 0QY      -0.112400
     10 C10          1.6640     0.5220    -3.5170 ca         1 0QY      -0.121000
     11 C11          0.9880     0.4150    -4.7120 ca         1 0QY      -0.071000
     12 C12          0.0380    -0.8870    -2.4360 ca         1 0QY      -0.031000
     13 C13         -0.6560    -1.0030    -3.6430 ca         1 0QY       0.084400
     14 C14         -0.1730    -0.3420    -4.7850 ca         1 0QY      -0.291200
     15 N15         -1.0600    -0.6430    -5.8020 na         1 0QY       0.260700
     16 C16         -2.0210    -1.4480    -5.2760 cc         1 0QY       0.205800
     17 C17         -3.1890    -2.0140    -6.0420 c3         1 0QY       0.088500
     18 C18         -3.2060    -3.5130    -5.8980 cc         1 0QY      -0.147400
     19 C19         -2.6690    -4.4040    -6.7460 cd         1 0QY      -0.271100
     20 N20         -2.8760    -5.6750    -6.2820 na         1 0QY       0.356600
     21 C21         -3.5690    -5.6320    -5.0940 ca         1 0QY      -0.227200
     22 C22         -4.0300    -6.6090    -4.2180 ca         1 0QY      -0.111000
     23 C23         -4.7100    -6.2410    -3.0780 ca         1 0QY      -0.082000
     24 C24         -4.9420    -4.9020    -2.7930 ca         1 0QY      -0.135000
     25 C25         -4.4980    -3.9260    -3.6400 ca         1 0QY      -0.025000
     26 C26         -3.8060    -4.2770    -4.8000 ca         1 0QY      -0.077800
     27 N27         -1.7860    -1.6590    -4.0130 nd         1 0QY      -0.501100
     28 H1           2.8070     0.6830     1.2610 h1         1 0QY       0.010700
     29 H2           1.0080     1.3620     2.4970 hn         1 0QY       0.252800
     30 H4           1.0210    -0.3190     4.4310 h1         1 0QY       0.009700
     31 H5           2.5410     0.4740     3.9420 h1         1 0QY       0.009700
     32 H6           1.6080    -2.3380     3.4230 hc         1 0QY       0.019700
     33 H7           3.2660    -1.7220     3.6360 hc         1 0QY       0.019700
     34 H8           3.4920    -1.5450     1.3610 hc         1 0QY       0.021700
     35 H9           1.8340    -2.1620     1.1490 hc         1 0QY       0.021700
     36 H10          2.8810     0.0980    -1.1720 hn         1 0QY       0.162500
     37 H11          2.5700     1.1120    -3.4620 ha         1 0QY       0.103000
     38 H12          1.3630     0.9200    -5.5940 ha         1 0QY       0.097000
     39 H13         -0.2700    -1.4690    -1.5770 ha         1 0QY       0.142000
     40 H14         -0.9370    -0.4300    -6.7720 hn         1 0QY       0.123700
     41 H15         -3.0950    -1.7530    -7.0890 hc         1 0QY       0.019200
     42 H16         -4.1110    -1.6030    -5.6480 hc         1 0QY       0.019200
     43 H17         -2.1490    -4.1540    -7.6630 h4         1 0QY       0.134000
     44 H18         -2.5690    -6.5110    -6.7390 hn         1 0QY       0.111700
     45 H19         -3.8540    -7.6570    -4.4310 ha         1 0QY       0.096000
     46 H20         -5.0680    -7.0030    -2.3970 ha         1 0QY       0.098000
     47 H21         -5.4780    -4.6300    -1.8930 ha         1 0QY       0.103000
     48 H22         -4.6830    -2.8840    -3.4110 ha         1 0QY       0.110000
@<TRIPOS>BOND
     1     1     2 2   
     2     2     3 1   
     3     2     8 1   
     4     3     4 1   
     5     3     7 1   
     6     3    28 1   
     7     4     5 1   
     8     4    29 1   
     9     5     6 1   
    10     5    30 1   
    11     5    31 1   
    12     6     7 1   
    13     6    32 1   
    14     6    33 1   
    15     7    34 1   
    16     7    35 1   
    17     8     9 1   
    18     8    36 1   
    19     9    10 ar  
    20     9    12 ar  
    21    10    11 ar  
    22    10    37 1   
    23    11    14 ar  
    24    11    38 1   
    25    12    13 ar  
    26    12    39 1   
    27    13    14 ar  
    28    13    27 1   
    29    14    15 1   
    30    15    16 1   
    31    15    40 1   
    32    16    17 1   
    33    16    27 2   
    34    17    18 1   
    35    17    41 1   
    36    17    42 1   
    37    18    19 2   
    38    18    26 1   
    39    19    20 1   
    40    19    43 1   
    41    20    21 1   
    42    20    44 1   
    43    21    22 ar  
    44    21    26 ar  
    45    22    23 ar  
    46    22    45 1   
    47    23    24 ar  
    48    23    46 1   
    49    24    25 ar  
    50    24    47 1   
    51    25    26 ar  
    52    25    48 1   
@<TRIPOS>SUBSTRUCTURE
     1 0QY         1 TEMP              0 ****  ****    0 ROOT
