@<TRIPOS>MOLECULE
molecule
   48    52     1     0     0
SMALL
bcc


@<TRIPOS>ATOM
      1 O01          0.0000     0.0000     0.0000 o          1 0QY      -0.552100
      2 C02          1.2130     0.0000     0.0000 c          1 0QY       0.657100
      3 C03          1.9670     0.0000     1.3040 c3         1 0QY       0.073500
      4 N04          1.0630     0.3650     2.4250 n7         1 0QY      -0.755200
      5 C05          1.7370    -0.1820     3.6300 c3         1 0QY       0.137800
      6 C06          2.3020    -1.5440     3.1760 c3         1 0QY      -0.082400
      7 C07          2.4540    -1.4250     1.6450 c3         1 0QY      -0.073400
      8 N08          1.8860    -0.0070    -1.1680 ns         1 0QY      -0.483100
      9 C09          1.1890    -0.1250    -2.3780 ca         1 0QY       0.034600
     10 C10          1.6640     0.5220    -3.5170 ca         1 0QY      -0.145000
     11 C11          0.9880     0.4150    -4.7120 ca         1 0QY      -0.114000
     12 C12          0.0380    -0.8870    -2.4360 ca         1 0QY      -0.067000
     13 C13         -0.6560    -1.0030    -3.6430 ca         1 0QY       0.113400
     14 C14         -0.1730    -0.3420    -4.7850 ca         1 0QY      -0.112200
     15 N15         -1.0600    -0.6430    -5.8020 na         1 0QY      -0.267300
     16 C16         -2.0210    -1.4480    -5.2760 cc         1 0QY       0.425800
     17 C17         -3.1890    -2.0140    -6.0420 c3         1 0QY       0.001500
     18 C18         -3.2060    -3.5130    -5.8980 cd         1 0QY      -0.152400
     19 C19         -2.6690    -4.4040    -6.7460 cc         1 0QY      -0.096100
     20 N20         -2.8760    -5.6750    -6.2820 na         1 0QY      -0.181400
     21 C21         -3.5690    -5.6320    -5.0940 ca         1 0QY      -0.039200
     22 C22         -4.0300    -6.6090    -4.2180 ca         1 0QY      -0.150000
     23 C23         -4.7100    -6.2410    -3.0780 ca         1 0QY      -0.105000
     24 C24         -4.9420    -4.9020    -2.7930 ca         1 0QY      -0.158000
     25 C25         -4.4980    -3.9260    -3.6400 ca         1 0QY      -0.060000
     26 C26         -3.8060    -4.2770    -4.8000 ca         1 0QY      -0.081800
     27 N27         -1.7860    -1.6590    -4.0130 nd         1 0QY      -0.586100
     28 H1           2.8070     0.6830     1.2610 h1         1 0QY       0.032700
     29 H2           1.0080     1.3620     2.4970 hn         1 0QY       0.352800
     30 H4           1.0210    -0.3190     4.4310 h1         1 0QY       0.041700
     31 H5           2.5410     0.4740     3.9420 h1         1 0QY       0.041700
     32 H6           1.6080    -2.3380     3.4230 hc         1 0QY       0.051700
     33 H7           3.2660    -1.7220     3.6360 hc         1 0QY       0.051700
     34 H8           3.4920    -1.5450     1.3610 hc         1 0QY       0.054700
     35 H9           1.8340    -2.1620     1.1490 hc         1 0QY       0.054700
     36 H10          2.8810     0.0980    -1.1720 hn         1 0QY       0.318500
     37 H11          2.5700     1.1120    -3.4620 ha         1 0QY       0.129000
     38 H12          1.3630     0.9200    -5.5940 ha         1 0QY       0.125000
     39 H13         -0.2700    -1.4690    -1.5770 ha         1 0QY       0.170000
     40 H14         -0.9370    -0.4300    -6.7720 hn         1 0QY       0.296700
     41 H15         -3.0950    -1.7530    -7.0890 hc         1 0QY       0.061700
     42 H16         -4.1110    -1.6030    -5.6480 hc         1 0QY       0.061700
     43 H17         -2.1490    -4.1540    -7.6630 h4         1 0QY       0.159000
     44 H18         -2.5690    -6.5110    -6.7390 hn         1 0QY       0.294700
     45 H19         -3.8540    -7.6570    -4.4310 ha         1 0QY       0.122000
     46 H20         -5.0680    -7.0030    -2.3970 ha         1 0QY       0.128000
     47 H21         -5.4780    -4.6300    -1.8930 ha         1 0QY       0.130000
     48 H22         -4.6830    -2.8840    -3.4110 ha         1 0QY       0.140000
@<TRIPOS>BOND
     1    20    19 1   
     2    20    21 1   
     3    19    18 2   
     4    22    21 ar  
     5    22    23 ar  
     6    21    26 ar  
     7    18    26 1   
     8    18    17 1   
     9    26    25 ar  
    10    23    24 ar  
    11    17    16 1   
    12    24    25 ar  
    13    27    16 2   
    14    27    13 1   
    15    16    15 1   
    16    13    12 ar  
    17    13    14 ar  
    18    15    14 1   
    19    12     9 ar  
    20    14    11 ar  
    21     1     2 2   
    22     5     4 1   
    23     5     6 1   
    24     4     3 1   
    25     9     8 1   
    26     9    10 ar  
    27     2     8 1   
    28     2     3 1   
    29    11    10 ar  
    30     3     7 1   
    31     6     7 1   
    32     3    28 1   
    33     4    29 1   
    34     5    30 1   
    35     5    31 1   
    36     6    32 1   
    37     6    33 1   
    38     7    34 1   
    39     7    35 1   
    40     8    36 1   
    41    10    37 1   
    42    11    38 1   
    43    12    39 1   
    44    15    40 1   
    45    17    41 1   
    46    17    42 1   
    47    19    43 1   
    48    20    44 1   
    49    22    45 1   
    50    23    46 1   
    51    24    47 1   
    52    25    48 1   
@<TRIPOS>SUBSTRUCTURE
     1 0QY         1 TEMP              0 ****  ****    0 ROOT
