@<TRIPOS>MOLECULE
0R0
   14    14     1     0     0
SMALL
bcc


@<TRIPOS>ATOM
      1 NAA         -1.3020    -0.0130    -2.2130 n1         1 0R0      -0.378800
      2 CAC         -0.7200     0.0010    -1.2380 cg         1 0R0       0.241800
      3 CAI          0.0000     0.0000     0.0000 ca         1 0R0      -0.015000
      4 CAG          1.3970     0.0000     0.0000 ca         1 0R0      -0.062000
      5 CAE          2.0850     0.0000     1.1950 ca         1 0R0      -0.125000
      6 CAD          1.3960     0.0000     2.3960 ca         1 0R0      -0.069000
      7 CAF          0.0150     0.0000     2.4100 ca         1 0R0      -0.176000
      8 CAH         -0.6930     0.0070     1.2180 ca         1 0R0       0.177100
      9 OAB         -2.0490     0.0120     1.2310 oh         1 0R0      -0.468100
     10 H1           1.7480    -0.4950    -0.8980 ha         1 0R0       0.118000
     11 H2           3.1520    -0.1460     1.0760 ha         1 0R0       0.111000
     12 H3           2.0520    -0.1290     3.2480 ha         1 0R0       0.108000
     13 H4          -0.2060     0.0270     3.4700 ha         1 0R0       0.131000
     14 H5          -2.2170     0.7500     1.7940 ho         1 0R0       0.406000
@<TRIPOS>BOND
     1     1     2 3   
     2     2     3 1   
     3     3     4 ar  
     4     3     8 ar  
     5     4     5 ar  
     6     4    10 1   
     7     5     6 ar  
     8     5    11 1   
     9     6     7 ar  
    10     6    12 1   
    11     7     8 ar  
    12     7    13 1   
    13     8     9 1   
    14     9    14 1   
@<TRIPOS>SUBSTRUCTURE
     1 0R0         1 TEMP              0 ****  ****    0 ROOT
