@<TRIPOS>MOLECULE
0R0
   14    14     1     0     0
SMALL
bcc


@<TRIPOS>ATOM
      1 NAA         -1.2560     0.1160    -2.3160 n1         1 0R0      -0.362800
      2 CAC         -0.6880     0.0620    -1.3020 cg         1 0R0       0.248800
      3 CAI          0.0030    -0.0030    -0.0650 ca         1 0R0      -0.048000
      4 CAG          1.4030    -0.0880    -0.0430 ca         1 0R0      -0.058000
      5 CAE          2.0880    -0.1530     1.1670 ca         1 0R0      -0.171000
      6 CAD          1.3860    -0.1340     2.3730 ca         1 0R0      -0.068000
      7 CAF         -0.0030    -0.0510     2.3790 ca         1 0R0      -0.221000
      8 CAH         -0.6980     0.0150     1.1600 ca         1 0R0       0.165100
      9 OAB         -2.0660     0.0980     1.1000 oh         1 0R0      -0.482100
     10 H1           1.9570    -0.1030    -0.9950 ha         1 0R0       0.148000
     11 H2           3.1860    -0.2190     1.1710 ha         1 0R0       0.143000
     12 H3           1.9320    -0.1850     3.3280 ha         1 0R0       0.140000
     13 H4          -0.5580    -0.0360     3.3270 ha         1 0R0       0.141000
     14 H5          -2.4090     0.1010     2.0060 ho         1 0R0       0.426000
@<TRIPOS>BOND
     1     1     2 3   
     2     2     3 1   
     3     3     4 ar  
     4     3     8 ar  
     5     4     5 ar  
     6     4    10 1   
     7     5     6 ar  
     8     5    11 1   
     9     6     7 ar  
    10     6    12 1   
    11     7     8 ar  
    12     7    13 1   
    13     8     9 1   
    14     9    14 1   
@<TRIPOS>SUBSTRUCTURE
     1 0R0         1 TEMP              0 ****  ****    0 ROOT
