@<TRIPOS>MOLECULE
molecule
   65    67     1     0     0
SMALL
bcc


@<TRIPOS>ATOM
      1 Cl1          0.0000     0.0000     0.0000 cl         1 0R2      -0.129400
      2 C1           1.7360     0.0000     0.0000 ca         1 0R2       0.026400
      3 C2           2.4270     0.0000     1.1990 ca         1 0R2      -0.127000
      4 C3           3.8100    -0.0060     1.1990 ca         1 0R2      -0.105000
      5 C4           2.4280    -0.0050    -1.1970 ca         1 0R2      -0.127000
      6 C5           3.8110    -0.0050    -1.1960 ca         1 0R2      -0.105000
      7 C6           4.5010    -0.0110     0.0020 ca         1 0R2      -0.099300
      8 C7           6.0090    -0.0160     0.0030 c3         1 0R2       0.176000
      9 N1           6.4860    -1.2430    -0.6230 n          1 0R2      -0.481800
     10 C8           5.7810    -2.4900    -0.3150 c3         1 0R2       0.075700
     11 C9           6.5740    -3.2800     0.6940 c          1 0R2       0.624100
     12 O4           7.6210    -2.8450     1.1140 o          1 0R2      -0.546000
     13 C11          7.5240    -1.3020    -1.4570 c          1 0R2       0.702500
     14 O1           7.8560    -2.3880    -1.8850 o          1 0R2      -0.563500
     15 C12          8.3050    -0.0960    -1.8960 c3         1 0R2      -0.108700
     16 C13          7.8840     0.2940    -3.3140 c3         1 0R2      -0.182400
     17 C14          8.2700    -0.8030    -4.2720 c          1 0R2       0.875600
     18 O2           7.9970    -0.6780    -5.5800 o          1 0R2      -0.832800
     19 O3           8.8260    -1.7940    -3.8630 o          1 0R2      -0.832800
     20 C15          8.0340     1.0730    -0.9450 c3         1 0R2      -0.084400
     21 C16          6.5180     1.2070    -0.7600 c3         1 0R2      -0.036400
     22 C17          6.2130     2.4570     0.0250 ca         1 0R2      -0.055300
     23 C18          5.4150     3.4410    -0.5250 ca         1 0R2      -0.116000
     24 C19          5.1340     4.5870     0.1950 ca         1 0R2      -0.122000
     25 C20          5.6520     4.7500     1.4650 ca         1 0R2      -0.134000
     26 C21          6.4520     3.7640     2.0170 ca         1 0R2       0.028400
     27 Cl2          7.1030     3.9680     3.6140 cl         1 0R2      -0.127400
     28 C22          6.7270     2.6160     1.2980 ca         1 0R2      -0.120000
     29 C10          5.6190    -3.3130    -1.5940 c3         1 0R2      -0.080400
     30 C23          5.3750    -2.3750    -2.7780 c3         1 0R2      -0.096100
     31 O5           6.1170    -4.4650     1.1280 os         1 0R2      -0.428900
     32 C24          6.9330    -5.1700     2.1000 c3         1 0R2       0.160800
     33 C25          8.3110    -5.4550     1.4990 c3         1 0R2      -0.105433
     34 C26          7.0920    -4.3080     3.3540 c3         1 0R2      -0.105433
     35 C27          6.2560    -6.4910     2.4710 c3         1 0R2      -0.105433
     36 H1           1.8850     0.0040     2.1370 ha         1 0R2       0.141000
     37 H2           4.3520    -0.0090     2.1380 ha         1 0R2       0.151500
     38 H3           1.8870     0.0000    -2.1360 ha         1 0R2       0.141000
     39 H4           4.3530    -0.0090    -2.1340 ha         1 0R2       0.151500
     40 H5           6.3700     0.0260     1.0230 h1         1 0R2       0.052700
     41 H6           4.8040    -2.2610     0.0930 h1         1 0R2       0.073700
     42 H7           9.3630    -0.3300    -1.8820 hc         1 0R2       0.102700
     43 H8           8.3810     1.2130    -3.5990 hc         1 0R2       0.032200
     44 H9           6.8100     0.4390    -3.3450 hc         1 0R2       0.032200
     45 H11          8.5020     0.8780     0.0120 hc         1 0R2       0.045200
     46 H12          8.4300     1.9870    -1.3720 hc         1 0R2       0.045200
     47 H13          6.0380     1.2550    -1.7300 hc         1 0R2       0.082700
     48 H14          5.0080     3.3140    -1.5220 ha         1 0R2       0.141000
     49 H15          4.5080     5.3590    -0.2370 ha         1 0R2       0.131000
     50 H16          5.4320     5.6480     2.0290 ha         1 0R2       0.134000
     51 H17          7.3530     1.8440     1.7290 ha         1 0R2       0.150000
     52 H18          4.7770    -3.9860    -1.4860 hc         1 0R2       0.062200
     53 H19          6.5200    -3.8890    -1.7690 hc         1 0R2       0.062200
     54 H20          5.6950    -1.3740    -2.5170 hc         1 0R2       0.045033
     55 H21          5.9370    -2.7230    -3.6360 hc         1 0R2       0.045033
     56 H22          4.3190    -2.3650    -3.0180 hc         1 0R2       0.045033
     57 H23          8.1980    -5.7600     0.4660 hc         1 0R2       0.046367
     58 H24          8.9180    -4.5590     1.5460 hc         1 0R2       0.046367
     59 H25          8.7930    -6.2480     2.0590 hc         1 0R2       0.046367
     60 H26          7.8810    -3.5820     3.1950 hc         1 0R2       0.046367
     61 H27          6.1620    -3.7920     3.5580 hc         1 0R2       0.046367
     62 H28          7.3470    -4.9400     4.1960 hc         1 0R2       0.046367
     63 H29          5.2720    -6.2910     2.8800 hc         1 0R2       0.046367
     64 H30          6.8550    -7.0090     3.2100 hc         1 0R2       0.046367
     65 H31          6.1600    -7.1090     1.5870 hc         1 0R2       0.046367
@<TRIPOS>BOND
     1    35    32 1   
     2    19    17 1   
     3    14    13 2   
     4    33    32 1   
     5    29    30 1   
     6    29    10 1   
     7    32    31 1   
     8    32    34 1   
     9    17    16 1   
    10    17    18 1   
    11    13    15 1   
    12    13     9 1   
    13    16    15 1   
    14    31    11 1   
    15    15    20 1   
    16    11    12 2   
    17    11    10 1   
    18    10     9 1   
    19     9     8 1   
    20    20    21 1   
    21     8    21 1   
    22     8     7 1   
    23    21    22 1   
    24     4     7 ar  
    25     4     3 ar  
    26     7     6 ar  
    27     3     2 ar  
    28    22    23 ar  
    29    22    28 ar  
    30     6     5 ar  
    31    23    24 ar  
    32     2     5 ar  
    33     2     1 1   
    34    28    26 ar  
    35    24    25 ar  
    36    26    25 ar  
    37    26    27 1   
    38     3    36 1   
    39     4    37 1   
    40     5    38 1   
    41     6    39 1   
    42     8    40 1   
    43    10    41 1   
    44    15    42 1   
    45    16    43 1   
    46    16    44 1   
    47    20    45 1   
    48    20    46 1   
    49    21    47 1   
    50    23    48 1   
    51    24    49 1   
    52    25    50 1   
    53    28    51 1   
    54    29    52 1   
    55    29    53 1   
    56    30    54 1   
    57    30    55 1   
    58    30    56 1   
    59    33    57 1   
    60    33    58 1   
    61    33    59 1   
    62    34    60 1   
    63    34    61 1   
    64    34    62 1   
    65    35    63 1   
    66    35    64 1   
    67    35    65 1   
@<TRIPOS>SUBSTRUCTURE
     1 0R2         1 TEMP              0 ****  ****    0 ROOT
