@<TRIPOS>MOLECULE
0R2
   65    67     1     0     0
SMALL
bcc


@<TRIPOS>ATOM
      1 Cl1          0.0310    -0.2390     0.5520 cl         1 0R2      -0.129400
      2 C1           1.7370    -0.1860     0.5570 ca         1 0R2       0.015400
      3 C2           2.4390    -0.4830     1.7280 ca         1 0R2      -0.136000
      4 C3           3.8340    -0.4330     1.7300 ca         1 0R2      -0.108000
      5 C4           2.4170     0.1510    -0.6160 ca         1 0R2      -0.136000
      6 C5           3.8100     0.2010    -0.6040 ca         1 0R2      -0.108000
      7 C6           4.5260    -0.0850     0.5640 ca         1 0R2      -0.102300
      8 C7           6.0440    -0.0200     0.5280 c3         1 0R2       0.166000
      9 N1           6.5430     1.1840     1.1940 n          1 0R2      -0.456800
     10 C8           6.1620     2.4280     0.5550 c3         1 0R2       0.081700
     11 C9           7.1600     2.8370    -0.5390 c          1 0R2       0.622100
     12 O4           7.7390     2.0840    -1.3260 o          1 0R2      -0.566000
     13 C11          7.5880     1.1550     2.1200 c          1 0R2       0.706500
     14 O1           8.2300     2.1920     2.3860 o          1 0R2      -0.669500
     15 C12          7.9070    -0.1640     2.8080 c3         1 0R2      -0.090700
     16 C13          6.9440    -0.3830     3.9640 c3         1 0R2      -0.199400
     17 C14          6.5590    -1.8580     4.1770 c          1 0R2       0.909600
     18 O2           5.3730    -2.1930     3.8720 o          1 0R2      -0.841800
     19 O3           7.4180    -2.6540     4.6420 o          1 0R2      -0.841800
     20 C15          7.9370    -1.2600     1.7630 c3         1 0R2      -0.073400
     21 C16          6.6110    -1.3730     1.0300 c3         1 0R2      -0.053400
     22 C17          6.7460    -2.3250    -0.1210 ca         1 0R2      -0.050300
     23 C18          7.5560    -2.0250    -1.2240 ca         1 0R2      -0.130000
     24 C19          7.6790    -2.9300    -2.2760 ca         1 0R2      -0.134000
     25 C20          7.0000    -4.1470    -2.2430 ca         1 0R2      -0.140000
     26 C21          6.1990    -4.4480    -1.1390 ca         1 0R2       0.013400
     27 Cl2          5.3690    -5.9380    -1.0920 cl         1 0R2      -0.118400
     28 C22          6.0680    -3.5500    -0.0770 ca         1 0R2      -0.102000
     29 C10          5.8950     3.6020     1.5080 c3         1 0R2      -0.081400
     30 C23          4.8200     3.2890     2.5140 c3         1 0R2      -0.091100
     31 O5           7.3220     4.1840    -0.6480 os         1 0R2      -0.436900
     32 C24          8.2700     4.7440    -1.5880 c3         1 0R2       0.171800
     33 C25          8.1840     6.2460    -1.3180 c3         1 0R2      -0.111100
     34 C26          7.8480     4.4440    -3.0180 c3         1 0R2      -0.111100
     35 C27          9.6750     4.2400    -1.3040 c3         1 0R2      -0.111100
     36 H1           1.9050    -0.7680     2.6470 ha         1 0R2       0.142500
     37 H2           4.3840    -0.7100     2.6590 ha         1 0R2       0.174500
     38 H3           1.8640     0.3720    -1.5390 ha         1 0R2       0.142500
     39 H4           4.3460     0.4580    -1.5310 ha         1 0R2       0.174500
     40 H5           6.3520     0.0940    -0.5640 h1         1 0R2       0.053700
     41 H6           5.1950     2.2390    -0.0150 h1         1 0R2       0.081700
     42 H7           8.9480    -0.0660     3.2320 hc         1 0R2       0.075700
     43 H8           6.0020     0.2030     3.8050 hc         1 0R2       0.037200
     44 H9           7.4210    -0.0090     4.9050 hc         1 0R2       0.037200
     45 H11          8.7660    -1.0550     1.0350 hc         1 0R2       0.065200
     46 H12          8.1510    -2.2380     2.2770 hc         1 0R2       0.065200
     47 H13          5.8790    -1.8100     1.7830 hc         1 0R2       0.140700
     48 H14          8.1000    -1.0670    -1.2580 ha         1 0R2       0.147000
     49 H15          8.3160    -2.6850    -3.1370 ha         1 0R2       0.125000
     50 H16          7.0980    -4.8600    -3.0740 ha         1 0R2       0.132000
     51 H17          5.4460    -3.8010     0.7990 ha         1 0R2       0.175000
     52 H18          6.8440     3.8920     2.0300 hc         1 0R2       0.065700
     53 H19          5.5780     4.4730     0.8740 hc         1 0R2       0.065700
     54 H20          3.8820     2.9550     2.0070 hc         1 0R2       0.037367
     55 H21          4.5910     4.2010     3.1160 hc         1 0R2       0.037367
     56 H22          5.1490     2.4810     3.2120 hc         1 0R2       0.037367
     57 H23          8.4670     6.4600    -0.2600 hc         1 0R2       0.047478
     58 H24          8.8800     6.7830    -2.0030 hc         1 0R2       0.047478
     59 H25          7.1430     6.6080    -1.4890 hc         1 0R2       0.047478
     60 H26          7.9550     3.3540    -3.2340 hc         1 0R2       0.047478
     61 H27          8.4920     5.0200    -3.7240 hc         1 0R2       0.047478
     62 H28          6.7840     4.7390    -3.1740 hc         1 0R2       0.047478
     63 H29          9.7670     3.1620    -1.5840 hc         1 0R2       0.047478
     64 H30          9.9040     4.3450    -0.2160 hc         1 0R2       0.047478
     65 H31         10.4120     4.8340    -1.8930 hc         1 0R2       0.047478
@<TRIPOS>BOND
     1     1     2 1   
     2     2     3 ar  
     3     2     5 ar  
     4     3     4 ar  
     5     3    36 1   
     6     4     7 ar  
     7     4    37 1   
     8     5     6 ar  
     9     5    38 1   
    10     6     7 ar  
    11     6    39 1   
    12     7     8 1   
    13     8     9 1   
    14     8    21 1   
    15     8    40 1   
    16     9    10 1   
    17     9    13 1   
    18    10    11 1   
    19    10    29 1   
    20    10    41 1   
    21    11    12 2   
    22    11    31 1   
    23    13    14 2   
    24    13    15 1   
    25    15    16 1   
    26    15    20 1   
    27    15    42 1   
    28    16    17 1   
    29    16    43 1   
    30    16    44 1   
    31    17    18 1   
    32    17    19 1   
    33    20    21 1   
    34    20    45 1   
    35    20    46 1   
    36    21    22 1   
    37    21    47 1   
    38    22    23 ar  
    39    22    28 ar  
    40    23    24 ar  
    41    23    48 1   
    42    24    25 ar  
    43    24    49 1   
    44    25    26 ar  
    45    25    50 1   
    46    26    27 1   
    47    26    28 ar  
    48    28    51 1   
    49    29    30 1   
    50    29    52 1   
    51    29    53 1   
    52    30    54 1   
    53    30    55 1   
    54    30    56 1   
    55    31    32 1   
    56    32    33 1   
    57    32    34 1   
    58    32    35 1   
    59    33    57 1   
    60    33    58 1   
    61    33    59 1   
    62    34    60 1   
    63    34    61 1   
    64    34    62 1   
    65    35    63 1   
    66    35    64 1   
    67    35    65 1   
@<TRIPOS>SUBSTRUCTURE
     1 0R2         1 TEMP              0 ****  ****    0 ROOT
