@<TRIPOS>MOLECULE
molecule
   60    62     1     0     0
SMALL
bcc


@<TRIPOS>ATOM
      1 C17          0.0000     0.0000     0.0000 ca         1 0R3      -0.118000
      2 C16          1.3840     0.0000     0.0000 ca         1 0R3       0.028400
      3 Cl2          2.2510     0.0000    -1.5040 cl         1 0R3      -0.129400
      4 C15          2.0760     0.0000     1.1980 ca         1 0R3      -0.135000
      5 C14          1.3840     0.0010     2.3940 ca         1 0R3      -0.122000
      6 C13          0.0020     0.0000     2.3940 ca         1 0R3      -0.116000
      7 C6          -0.6900     0.0060     1.1980 ca         1 0R3      -0.052300
      8 C2          -2.1970     0.0060     1.1980 c3         1 0R3      -0.042400
      9 C3          -2.7120     1.2610     0.4820 c3         1 0R3      -0.075400
     10 C4          -4.2310     1.3280     0.6570 c3         1 0R3      -0.102000
     11 C23         -4.5610     1.6800     2.1090 c3         1 0R3      -0.175400
     12 C25         -6.0560     1.7460     2.2820 c          1 0R3       0.874600
     13 O3          -6.7840     1.5340     1.3410 o          1 0R3      -0.831800
     14 O2          -6.5810     2.0410     3.4820 o          1 0R3      -0.831800
     15 C24         -4.8010     2.4050    -0.2690 c3         1 0R3      -0.072100
     16 C5          -4.8440     0.0010     0.3130 c          1 0R3       0.695500
     17 O1          -6.0340    -0.0390     0.0820 o          1 0R3      -0.573500
     18 N1          -4.1510    -1.1360     0.2480 n          1 0R3      -0.485800
     19 C18         -4.8820    -2.3700    -0.0510 c3         1 0R3       0.128700
     20 C19         -6.1020    -2.4730     0.8660 c3         1 0R3      -0.092400
     21 C22         -5.7330    -1.9790     2.2660 c3         1 0R3      -0.091100
     22 C20         -5.3390    -2.3520    -1.5100 c3         1 0R3       0.123100
     23 O4          -4.2010    -2.2300    -2.3650 oh         1 0R3      -0.617800
     24 C21         -6.0790    -3.6520    -1.8290 c3         1 0R3      -0.124100
     25 C1          -2.7110    -1.2280     0.4550 c3         1 0R3       0.179000
     26 C7          -2.4010    -2.4620     1.2640 ca         1 0R3      -0.091300
     27 C8          -1.7260    -3.5180     0.6810 ca         1 0R3      -0.101500
     28 C9          -1.4420    -4.6490     1.4220 ca         1 0R3      -0.131500
     29 C10         -1.8330    -4.7250     2.7470 ca         1 0R3       0.025400
     30 Cl1         -1.4760    -6.1460     3.6780 cl         1 0R3      -0.134400
     31 C11         -2.5100    -3.6670     3.3290 ca         1 0R3      -0.131500
     32 C12         -2.7880    -2.5340     2.5880 ca         1 0R3      -0.101500
     33 H1          -0.5420     0.0050    -0.9380 ha         1 0R3       0.151000
     34 H2           3.1590     0.0000     1.1980 ha         1 0R3       0.134000
     35 H3           1.9250    -0.0020     3.3330 ha         1 0R3       0.130000
     36 H4          -0.5400     0.0030     3.3330 ha         1 0R3       0.141000
     37 H5          -2.5650    -0.0060     2.2170 hc         1 0R3       0.081700
     38 H6          -2.2570     2.1410     0.9190 hc         1 0R3       0.044200
     39 H7          -2.4700     1.2030    -0.5720 hc         1 0R3       0.044200
     40 H8          -4.1540     0.9200     2.7660 hc         1 0R3       0.033200
     41 H9          -4.1260     2.6410     2.3550 hc         1 0R3       0.033200
     42 H11         -4.2940     2.3640    -1.2250 hc         1 0R3       0.044700
     43 H12         -5.8610     2.2330    -0.4140 hc         1 0R3       0.044700
     44 H13         -4.6510     3.3810     0.1780 hc         1 0R3       0.044700
     45 H14         -4.2340    -3.2230     0.1130 h1         1 0R3       0.056700
     46 H15         -6.4250    -3.5060     0.9220 hc         1 0R3       0.056700
     47 H16         -6.9050    -1.8650     0.4680 hc         1 0R3       0.056700
     48 H17         -4.9930    -2.6400     2.6990 hc         1 0R3       0.040367
     49 H18         -5.3270    -0.9760     2.2000 hc         1 0R3       0.040367
     50 H19         -6.6190    -1.9690     2.8900 hc         1 0R3       0.040367
     51 H20         -6.0020    -1.5100    -1.6700 h1         1 0R3       0.072700
     52 H21         -4.4790    -1.9500    -3.2210 ho         1 0R3       0.393000
     53 H22         -7.1370    -3.4480    -1.9380 hc         1 0R3       0.035700
     54 H23         -5.9290    -4.3600    -1.0230 hc         1 0R3       0.035700
     55 H24         -5.6950    -4.0690    -2.7520 hc         1 0R3       0.035700
     56 H25         -2.2180    -1.2940    -0.5070 h1         1 0R3       0.056700
     57 H26         -1.4190    -3.4580    -0.3560 ha         1 0R3       0.152500
     58 H27         -0.9130    -5.4770     0.9650 ha         1 0R3       0.138500
     59 H28         -2.8150    -3.7240     4.3670 ha         1 0R3       0.138500
     60 H29         -3.3170    -1.7060     3.0430 ha         1 0R3       0.152500
@<TRIPOS>BOND
     1    24    22 1
     2    22    23 1
     3    22    19 1
     4    21    20 1
     5    31    32 ar
     6    31    29 ar
     7    19    20 1
     8    19    18 1
     9    32    26 ar
    10    30    29 1
    11    29    28 ar
    12    26    25 1
    13    26    27 ar
    14    18    25 1
    15    18    16 1
    16    25     8 1
    17    28    27 ar
    18    17    16 2
    19    16    10 1
    20     6     5 ar
    21     6     7 ar
    22     5     4 ar
    23     8     7 1
    24     8     9 1
    25     7     1 ar
    26     4     2 ar
    27     9    10 1
    28    15    10 1
    29    10    11 1
    30     1     2 ar
    31     2     3 1
    32    11    12 1
    33    12    13 1
    34    12    14 1
    35     1    33 1
    36     4    34 1
    37     5    35 1
    38     6    36 1
    39     8    37 1
    40     9    38 1
    41     9    39 1
    42    11    40 1
    43    11    41 1
    44    15    42 1
    45    15    43 1
    46    15    44 1
    47    19    45 1
    48    20    46 1
    49    20    47 1
    50    21    48 1
    51    21    49 1
    52    21    50 1
    53    22    51 1
    54    23    52 1
    55    24    53 1
    56    24    54 1
    57    24    55 1
    58    25    56 1
    59    27    57 1
    60    28    58 1
    61    31    59 1
    62    32    60 1
@<TRIPOS>SUBSTRUCTURE
     1 0R3         1 TEMP              0 ****  ****    0 ROOT
