@<TRIPOS>MOLECULE
0R3
   60    62     1     0     0
SMALL
bcc


@<TRIPOS>ATOM
      1 C17          0.2300    -0.4510     0.6690 ca         1 0R3      -0.101000
      2 C16          1.5660    -0.5200     1.0720 ca         1 0R3       0.016400
      3 Cl2          2.7590    -1.0150    -0.0410 cl         1 0R3      -0.115400
      4 C15          1.9440    -0.1890     2.3770 ca         1 0R3      -0.140000
      5 C14          0.9650     0.2120     3.2840 ca         1 0R3      -0.132000
      6 C13         -0.3710     0.2860     2.8930 ca         1 0R3      -0.133000
      7 C6          -0.7480    -0.0370     1.5830 ca         1 0R3      -0.047300
      8 C2          -2.1800     0.0220     1.1440 c3         1 0R3      -0.060400
      9 C3          -2.9840    -1.0470     1.8610 c3         1 0R3      -0.068400
     10 C4          -4.4770    -0.9350     1.5740 c3         1 0R3      -0.075000
     11 C23         -4.8400    -1.1090     0.0990 c3         1 0R3      -0.197400
     12 C25         -3.8470    -1.9950    -0.6740 c          1 0R3       0.909600
     13 O3          -3.1270    -1.4210    -1.5470 o          1 0R3      -0.842300
     14 O2          -3.7970    -3.2280    -0.4140 o          1 0R3      -0.842300
     15 C24         -5.1980    -2.0000     2.3910 c3         1 0R3      -0.084100
     16 C5          -4.9480     0.4540     2.0120 c          1 0R3       0.700500
     17 O1          -6.0680     0.6300     2.5400 o          1 0R3      -0.678500
     18 N1          -4.1040     1.5440     1.8260 n          1 0R3      -0.481800
     19 C18         -4.5510     2.8740     2.2310 c3         1 0R3       0.089700
     20 C19         -5.9070     3.2670     1.6110 c3         1 0R3      -0.083400
     21 C22         -5.8790     4.6600     1.0370 c3         1 0R3      -0.096100
     22 C20         -4.6220     3.0140     3.7810 c3         1 0R3       0.120100
     23 O4          -3.3630     2.7130     4.3770 oh         1 0R3      -0.616800
     24 C21         -4.9390     4.4380     4.2000 c3         1 0R3      -0.088100
     25 C1          -2.7360     1.4560     1.3360 c3         1 0R3       0.176000
     26 C7          -2.5180     2.2570     0.0620 ca         1 0R3      -0.099300
     27 C8          -2.8860     1.7740    -1.1990 ca         1 0R3      -0.107500
     28 C9          -2.6670     2.5480    -2.3390 ca         1 0R3      -0.136000
     29 C10         -2.0750     3.8060    -2.2200 ca         1 0R3       0.015400
     30 Cl1         -1.8120     4.7590    -3.6120 cl         1 0R3      -0.130400
     31 C11         -1.6870     4.2940    -0.9700 ca         1 0R3      -0.136000
     32 C12         -1.9120     3.5160     0.1630 ca         1 0R3      -0.107500
     33 H1          -0.0640    -0.7300    -0.3580 ha         1 0R3       0.179000
     34 H2           2.9970    -0.2470     2.6850 ha         1 0R3       0.133000
     35 H3           1.2500     0.4690     4.3140 ha         1 0R3       0.125000
     36 H4          -1.1360     0.5990     3.6210 ha         1 0R3       0.131000
     37 H5          -2.2290    -0.2420     0.0380 hc         1 0R3       0.143700
     38 H6          -2.8140    -0.9780     2.9690 hc         1 0R3       0.061200
     39 H7          -2.6340    -2.0590     1.5140 hc         1 0R3       0.061200
     40 H8          -4.8930    -0.1100    -0.4040 hc         1 0R3       0.039200
     41 H9          -5.8550    -1.5770     0.0250 hc         1 0R3       0.039200
     42 H11         -6.3010    -1.8410     2.3430 hc         1 0R3       0.044367
     43 H12         -4.8820    -1.9620     3.4610 hc         1 0R3       0.044367
     44 H13         -4.9470    -3.0020     1.9600 hc         1 0R3       0.044367
     45 H14         -3.7710     3.6140     1.8740 h1         1 0R3       0.062700
     46 H15         -6.1850     2.5470     0.7950 hc         1 0R3       0.059700
     47 H16         -6.7080     3.1770     2.3900 hc         1 0R3       0.059700
     48 H17         -5.1450     4.7270     0.1970 hc         1 0R3       0.029700
     49 H18         -6.8890     4.9290     0.6430 hc         1 0R3       0.029700
     50 H19         -5.5920     5.4120     1.8120 hc         1 0R3       0.029700
     51 H20         -5.4060     2.3070     4.1770 h1         1 0R3       0.062700
     52 H21         -3.1970     1.7740     4.2320 ho         1 0R3       0.405000
     53 H22         -5.9840     4.6950     3.9090 hc         1 0R3       0.039367
     54 H23         -4.2340     5.1560     3.7160 hc         1 0R3       0.039367
     55 H24         -4.8320     4.5330     5.3070 hc         1 0R3       0.039367
     56 H25         -2.1070     1.9570     2.1440 h1         1 0R3       0.041700
     57 H26         -3.3190     0.7550    -1.3220 ha         1 0R3       0.173500
     58 H27         -2.9550     2.1530    -3.3250 ha         1 0R3       0.142000
     59 H28         -1.2080     5.2790    -0.8780 ha         1 0R3       0.142000
     60 H29         -1.5980     3.9000     1.1470 ha         1 0R3       0.173500
@<TRIPOS>BOND
     1     1     2 ar  
     2     1     7 ar  
     3     1    33 1   
     4     2     3 1   
     5     2     4 ar  
     6     4     5 ar  
     7     4    34 1   
     8     5     6 ar  
     9     5    35 1   
    10     6     7 ar  
    11     6    36 1   
    12     7     8 1   
    13     8     9 1   
    14     8    25 1   
    15     8    37 1   
    16     9    10 1   
    17     9    38 1   
    18     9    39 1   
    19    10    11 1   
    20    10    15 1   
    21    10    16 1   
    22    11    12 1   
    23    11    40 1   
    24    11    41 1   
    25    12    13 1   
    26    12    14 1   
    27    15    42 1   
    28    15    43 1   
    29    15    44 1   
    30    16    17 2   
    31    16    18 1   
    32    18    19 1   
    33    18    25 1   
    34    19    20 1   
    35    19    22 1   
    36    19    45 1   
    37    20    21 1   
    38    20    46 1   
    39    20    47 1   
    40    21    48 1   
    41    21    49 1   
    42    21    50 1   
    43    22    23 1   
    44    22    24 1   
    45    22    51 1   
    46    23    52 1   
    47    24    53 1   
    48    24    54 1   
    49    24    55 1   
    50    25    26 1   
    51    25    56 1   
    52    26    27 ar  
    53    26    32 ar  
    54    27    28 ar  
    55    27    57 1   
    56    28    29 ar  
    57    28    58 1   
    58    29    30 1   
    59    29    31 ar  
    60    31    32 ar  
    61    31    59 1   
    62    32    60 1   
@<TRIPOS>SUBSTRUCTURE
     1 0R3         1 TEMP              0 ****  ****    0 ROOT
