@<TRIPOS>MOLECULE
molecule
   69    74     1     0     0
SMALL
bcc


@<TRIPOS>ATOM
      1 O1           0.0000     0.0000     0.0000 o          1 0R4      -0.582100
      2 C21          1.2130     0.0000     0.0000 c          1 0R4       0.653100
      3 C22          1.9670     0.0000     1.3050 c3         1 0R4      -0.171100
      4 N5           1.8870    -0.0040    -1.1670 ns         1 0R4      -0.482100
      5 C17          1.1900    -0.1120    -2.3760 ca         1 0R4       0.049600
      6 C18          1.6670     0.5320    -3.5120 ca         1 0R4      -0.153000
      7 C19          0.9820     0.4280    -4.7080 ca         1 0R4      -0.117000
      8 C20         -0.1790    -0.3150    -4.7820 ca         1 0R4      -0.130000
      9 C16          0.0290    -0.8650    -2.4430 ca         1 0R4      -0.089000
     10 C15         -0.6640    -0.9650    -3.6480 cp         1 0R4      -0.130500
     11 C3          -1.9100    -1.7640    -3.7250 cp         1 0R4       0.508800
     12 C2          -2.5340    -1.9450    -4.9620 ca         1 0R4      -0.258300
     13 C1          -3.6860    -2.6810    -5.0370 ca         1 0R4      -0.042000
     14 N1          -2.4110    -2.2980    -2.6200 nb         1 0R4      -0.683000
     15 C5          -3.5200    -3.0160    -2.6440 ca         1 0R4       0.428800
     16 C4          -4.2030    -3.2330    -3.8570 ca         1 0R4      -0.025900
     17 N2          -5.2890    -3.9930    -3.5810 nc         1 0R4      -0.606100
     18 C6          -5.3250    -4.2580    -2.2970 cd         1 0R4       0.508400
     19 C23         -6.3630    -5.0630    -1.6240 ca         1 0R4      -0.318200
     20 C24         -7.7250    -4.8210    -1.8700 ca         1 0R4       0.745200
     21 N7          -8.0990    -3.8190    -2.7500 nv         1 0R4      -0.991500
     22 N6          -8.6530    -5.5460    -1.2650 nb         1 0R4      -0.769000
     23 C25         -8.3400    -6.5100    -0.4190 ca         1 0R4       0.490200
     24 C26         -7.0220    -6.8060    -0.1280 ca         1 0R4      -0.330300
     25 C27         -6.0090    -6.0820    -0.7360 ca         1 0R4      -0.022000
     26 N3          -4.2510    -3.6740    -1.6740 na         1 0R4      -0.181100
     27 C7          -3.9490    -3.7360    -0.3060 ca         1 0R4       0.008800
     28 C8          -4.7880    -3.1290     0.6190 ca         1 0R4      -0.114000
     29 C9          -4.4880    -3.1920     1.9650 ca         1 0R4      -0.105500
     30 C12         -2.8130    -4.4090     0.1260 ca         1 0R4      -0.114000
     31 C11         -2.5200    -4.4680     1.4750 ca         1 0R4      -0.105500
     32 C10         -3.3550    -3.8580     2.3930 ca         1 0R4      -0.112300
     33 C13         -3.0310    -3.9250     3.8630 c3         1 0R4       0.161300
     34 N4          -3.6520    -5.1150     4.4470 ns         1 0R4      -0.581900
     35 C14         -3.4970    -5.3820     5.7590 c          1 0R4       0.672700
     36 O2          -2.8410    -4.6340     6.4590 o          1 0R4      -0.604100
     37 C28         -4.1250    -6.5830     6.3480 ca         1 0R4      -0.121600
     38 C33         -4.8750    -7.4470     5.5480 ca         1 0R4      -0.149000
     39 C29         -3.9660    -6.8630     7.7070 ca         1 0R4      -0.083000
     40 C30         -4.5540    -7.9850     8.2520 ca         1 0R4      -0.113000
     41 C31         -5.3000    -8.8350     7.4560 ca         1 0R4      -0.146000
     42 C32         -5.4580    -8.5680     6.1050 ca         1 0R4       0.124900
     43 F1          -6.1840    -9.4050     5.3330 f          1 0R4      -0.139900
     44 H1           2.5720     0.8960     1.3720 hc         1 0R4       0.063367
     45 H2           2.6080    -0.8720     1.3520 hc         1 0R4       0.063367
     46 H3           1.2640    -0.0240     2.1290 hc         1 0R4       0.063367
     47 H4           2.8860     0.0460    -1.1680 hn         1 0R4       0.322500
     48 H5           2.5780     1.1170    -3.4600 ha         1 0R4       0.129000
     49 H6           1.3570     0.9320    -5.5910 ha         1 0R4       0.133000
     50 H7          -0.7130    -0.3920    -5.7210 ha         1 0R4       0.133000
     51 H8          -0.3440    -1.3680    -1.5590 ha         1 0R4       0.183000
     52 H9          -2.0480    -1.6060    -5.8690 ha         1 0R4       0.146000
     53 H10         -4.1860    -2.8340    -5.9860 ha         1 0R4       0.149000
     54 H11         -9.0690    -3.6450    -2.9270 hn         1 0R4       0.451800
     55 H12         -7.4000    -3.2690    -3.2090 hn         1 0R4       0.451800
     56 H13         -9.1310    -7.0780     0.0560 h4         1 0R4       0.024100
     57 H14         -6.7820    -7.6010     0.5680 ha         1 0R4       0.140000
     58 H15         -4.9690    -6.2970    -0.5230 ha         1 0R4       0.142000
     59 H16         -5.6770    -2.6070     0.2840 ha         1 0R4       0.149000
     60 H17         -5.1410    -2.7170     2.6880 ha         1 0R4       0.143000
     61 H18         -2.1590    -4.8870    -0.5930 ha         1 0R4       0.149000
     62 H19         -1.6330    -4.9900     1.8130 ha         1 0R4       0.143000
     63 H20         -1.9560    -3.9780     3.9940 h1         1 0R4       0.063200
     64 H21         -3.4110    -3.0390     4.3580 h1         1 0R4       0.063200
     65 H22         -4.1930    -5.7310     3.8720 hn         1 0R4       0.319500
     66 H23         -4.9990    -7.2390     4.4920 ha         1 0R4       0.140000
     67 H24         -3.3820    -6.1980     8.3330 ha         1 0R4       0.162000
     68 H25         -4.4330    -8.2000     9.3060 ha         1 0R4       0.144000
     69 H26         -5.7600    -9.7160     7.8900 ha         1 0R4       0.148000
@<TRIPOS>BOND
     1    23    24 ar
     2    23    22 ar
     3    24    25 ar
     4    22    20 ar
     5    25    19 ar
     6    20    19 ar
     7    20    21 1
     8    19    18 1
     9    29    28 ar
    10    29    32 ar
    11    36    35 2
    12    18    17 2
    13    18    26 1
    14    33    32 1
    15    33    34 1
    16    28    27 ar
    17    32    31 ar
    18    27    26 1
    19    27    30 ar
    20    17    16 1
    21    31    30 ar
    22    26    15 1
    23    35    34 1
    24    35    37 1
    25    37    39 ar
    26    37    38 ar
    27    16    15 ar
    28    16    13 ar
    29    15    14 ar
    30    39    40 ar
    31    38    42 ar
    32    40    41 ar
    33    13    12 ar
    34    42    41 ar
    35    42    43 1
    36    14    11 ar
    37    12    11 ar
    38    11    10 1
    39     8    10 ar
    40     8     7 ar
    41    10     9 ar
    42     7     6 ar
    43     9     5 ar
    44     6     5 ar
    45     5     4 1
    46     1     2 2
    47     4     2 1
    48     2     3 1
    49     3    44 1
    50     3    45 1
    51     3    46 1
    52     4    47 1
    53     6    48 1
    54     7    49 1
    55     8    50 1
    56     9    51 1
    57    12    52 1
    58    13    53 1
    59    21    54 1
    60    21    55 1
    61    23    56 1
    62    24    57 1
    63    25    58 1
    64    28    59 1
    65    29    60 1
    66    30    61 1
    67    31    62 1
    68    33    63 1
    69    33    64 1
    70    34    65 1
    71    38    66 1
    72    39    67 1
    73    40    68 1
    74    41    69 1
@<TRIPOS>SUBSTRUCTURE
     1 0R4         1 TEMP              0 ****  ****    0 ROOT
