@<TRIPOS>MOLECULE
0R4
   70    75     1     0     0
SMALL
bcc


@<TRIPOS>ATOM
      1 O1          -0.0180     0.7950     0.1820 o          1 0R4      -0.588100
      2 C21          1.1890     0.5070     0.2730 c          1 0R4       0.668100
      3 C22          1.8350     0.2510     1.6150 c3         1 0R4      -0.179100
      4 N5           2.0240     0.3970    -0.8350 ns         1 0R4      -0.478100
      5 C17          1.6940     0.6010    -2.1830 ca         1 0R4       0.077600
      6 C18          2.6890     0.3610    -3.1640 ca         1 0R4      -0.173000
      7 C19          2.4090     0.5550    -4.5110 ca         1 0R4      -0.109000
      8 C20          1.1500     0.9880    -4.9250 ca         1 0R4      -0.129000
      9 C16          0.4230     1.0420    -2.6060 ca         1 0R4      -0.144000
     10 C15          0.1630     1.2360    -3.9670 cp         1 0R4      -0.131500
     11 C3          -1.1690     1.7330    -4.3690 cp         1 0R4       0.490800
     12 C2          -1.7120     2.8330    -3.6450 ca         1 0R4      -0.239300
     13 C1          -2.9540     3.3600    -3.9700 ca         1 0R4      -0.026000
     14 N1          -1.7980     1.1240    -5.4030 nb         1 0R4      -0.669000
     15 C5          -3.0120     1.6410    -5.7120 ca         1 0R4       0.409800
     16 C4          -3.6480     2.7620    -5.0290 ca         1 0R4      -0.029900
     17 N2          -4.9020     3.0280    -5.6110 nc         1 0R4      -0.529100
     18 C6          -5.0590     2.1240    -6.5910 cd         1 0R4       0.505400
     19 C23         -6.1970     2.0730    -7.5090 ca         1 0R4      -0.325200
     20 C24         -7.5040     1.7060    -7.0490 ca         1 0R4       0.670200
     21 N7          -7.6870     1.2380    -5.7470 nv         1 0R4      -0.928500
     22 N6          -8.5820     1.7160    -7.9090 nb         1 0R4      -0.721000
     23 C25         -8.3710     2.0790    -9.1770 ca         1 0R4       0.461200
     24 C26         -7.1200     2.4610    -9.7020 ca         1 0R4      -0.300300
     25 C27         -6.0270     2.4610    -8.8440 ca         1 0R4      -0.025000
     26 N3          -3.9290     1.2410    -6.7230 na         1 0R4      -0.223100
     27 C7          -3.8410     0.0570    -7.4610 ca         1 0R4       0.096800
     28 C8          -4.9800    -0.7570    -7.6750 ca         1 0R4      -0.134000
     29 C9          -4.8730    -1.9430    -8.3890 ca         1 0R4      -0.083000
     30 C12         -2.5990    -0.3560    -8.0070 ca         1 0R4      -0.134000
     31 C11         -2.5090    -1.5480    -8.7110 ca         1 0R4      -0.083000
     32 C10         -3.6380    -2.3540    -8.9020 ca         1 0R4      -0.221300
     33 C13         -3.5270    -3.6240    -9.6620 c3         1 0R4       0.187100
     34 N4          -3.1480    -4.7560    -8.7400 ny         1 0R4      -0.681800
     35 C14         -2.9510    -6.0460    -9.5010 c          1 0R4       0.567700
     36 O2          -3.9670    -6.7160    -9.6420 o          1 0R4      -0.426100
     37 C28         -1.5960    -6.3710    -9.9510 ca         1 0R4      -0.172600
     38 C33         -0.5650    -5.4240   -10.0240 ca         1 0R4      -0.148000
     39 C29         -1.3630    -7.7030   -10.3320 ca         1 0R4      -0.054000
     40 C30         -0.0970    -8.0890   -10.7750 ca         1 0R4      -0.102000
     41 C31          0.9400    -7.1670   -10.8490 ca         1 0R4      -0.090000
     42 C32          0.7030    -5.8250   -10.4740 ca         1 0R4       0.144900
     43 F1           1.7000    -4.9170   -10.5480 f          1 0R4      -0.107900
     44 H1           2.6490     0.9930     1.8050 hc         1 0R4       0.073700
     45 H2           1.0560     0.3570     2.4090 hc         1 0R4       0.073700
     46 H3           2.2600    -0.7800     1.6590 hc         1 0R4       0.073700
     47 H4           2.9740     0.1540    -0.6600 hn         1 0R4       0.319500
     48 H5           3.6950     0.0240    -2.8690 ha         1 0R4       0.135000
     49 H6           3.1950     0.3680    -5.2580 ha         1 0R4       0.136000
     50 H7           0.9420     1.1410    -5.9930 ha         1 0R4       0.139000
     51 H8          -0.3800     1.2330    -1.8730 ha         1 0R4       0.181000
     52 H9          -1.1260     3.2640    -2.8190 ha         1 0R4       0.166000
     53 H10         -3.3820     4.2140    -3.4220 ha         1 0R4       0.167000
     54 H11         -7.0840     1.6440    -5.0660 hn         1 0R4       0.422300
     55 H12         -8.6340     1.1440    -5.4460 hn         1 0R4       0.422300
     56 H13         -9.2740     2.0770    -9.8190 h4         1 0R4       0.034100
     57 H14         -7.0240     2.7650   -10.7520 ha         1 0R4       0.156000
     58 H15         -5.0330     2.7720    -9.2010 ha         1 0R4       0.148000
     59 H16         -5.9630    -0.4530    -7.2730 ha         1 0R4       0.180500
     60 H17         -5.7750    -2.5560    -8.5500 ha         1 0R4       0.139500
     61 H18         -1.6950     0.2620    -7.8720 ha         1 0R4       0.180500
     62 H19         -1.5370    -1.8480    -9.1350 ha         1 0R4       0.139500
     63 H20         -2.7300    -3.5550   -10.4570 hx         1 0R4       0.108700
     64 H21         -4.5070    -3.9030   -10.1470 hx         1 0R4       0.108700
     65 H22         -2.2920    -4.5080    -8.2320 hn         1 0R4       0.460800
     66 H23         -0.7070    -4.3640    -9.7630 ha         1 0R4       0.146000
     67 H24         -2.1830    -8.4410   -10.2840 ha         1 0R4       0.176000
     68 H25          0.0790    -9.1380   -11.0710 ha         1 0R4       0.177000
     69 H26          1.9430    -7.4630   -11.1980 ha         1 0R4       0.183000
     70 H42         -3.9050    -4.8800    -8.0540 hn         1 0R4       0.460800
@<TRIPOS>BOND
     1     1     2 2   
     2     2     3 1   
     3     2     4 1   
     4     3    44 1   
     5     3    45 1   
     6     3    46 1   
     7     4     5 1   
     8     4    47 1   
     9     5     6 ar  
    10     5     9 ar  
    11     6     7 ar  
    12     6    48 1   
    13     7     8 ar  
    14     7    49 1   
    15     8    10 ar  
    16     8    50 1   
    17     9    10 ar  
    18     9    51 1   
    19    10    11 1   
    20    11    12 ar  
    21    11    14 ar  
    22    12    13 ar  
    23    12    52 1   
    24    13    16 ar  
    25    13    53 1   
    26    14    15 ar  
    27    15    16 ar  
    28    15    26 1   
    29    16    17 1   
    30    17    18 2   
    31    18    19 1   
    32    18    26 1   
    33    19    20 ar  
    34    19    25 ar  
    35    20    21 1   
    36    20    22 ar  
    37    21    54 1   
    38    21    55 1   
    39    22    23 ar  
    40    23    24 ar  
    41    23    56 1   
    42    24    25 ar  
    43    24    57 1   
    44    25    58 1   
    45    26    27 1   
    46    27    28 ar  
    47    27    30 ar  
    48    28    29 ar  
    49    28    59 1   
    50    29    32 ar  
    51    29    60 1   
    52    30    31 ar  
    53    30    61 1   
    54    31    32 ar  
    55    31    62 1   
    56    32    33 1   
    57    33    34 1   
    58    33    63 1   
    59    33    64 1   
    60    34    35 1   
    61    34    65 1   
    62    34    70 1   
    63    35    36 2   
    64    35    37 1   
    65    37    38 ar  
    66    37    39 ar  
    67    38    42 ar  
    68    38    66 1   
    69    39    40 ar  
    70    39    67 1   
    71    40    41 ar  
    72    40    68 1   
    73    41    42 ar  
    74    41    69 1   
    75    42    43 1   
@<TRIPOS>SUBSTRUCTURE
     1 0R4         1 TEMP              0 ****  ****    0 ROOT
