@<TRIPOS>MOLECULE
0R4
   69    74     1     0     0
SMALL
bcc


@<TRIPOS>ATOM
      1 O1           0.0000     0.0000     0.0000 o          1 0R4      -0.625100
      2 C21          1.2130     0.0000     0.0000 c          1 0R4       0.555100
      3 C22          1.9670     0.0000     1.3050 c3         1 0R4      -0.070100
      4 N5           1.8870    -0.0040    -1.1670 ns         1 0R4      -0.040100
      5 C17          1.1900    -0.1120    -2.3760 ca         1 0R4      -0.093400
      6 C18          1.6670     0.5320    -3.5120 ca         1 0R4      -0.127000
      7 C19          0.9820     0.4280    -4.7080 ca         1 0R4      -0.087000
      8 C20         -0.1790    -0.3150    -4.7820 ca         1 0R4      -0.109000
      9 C16          0.0290    -0.8650    -2.4430 ca         1 0R4      -0.073000
     10 C15         -0.6640    -0.9650    -3.6480 cp         1 0R4      -0.132500
     11 C3          -1.9100    -1.7640    -3.7250 cp         1 0R4       0.441800
     12 C2          -2.5340    -1.9450    -4.9620 ca         1 0R4      -0.228300
     13 C1          -3.6860    -2.6810    -5.0370 ca         1 0R4      -0.015000
     14 N1          -2.4110    -2.2980    -2.6200 nb         1 0R4      -0.531000
     15 C5          -3.5200    -3.0160    -2.6440 ca         1 0R4       0.189800
     16 C4          -4.2030    -3.2330    -3.8570 ca         1 0R4      -0.049900
     17 N2          -5.2890    -3.9930    -3.5810 nc         1 0R4      -0.526100
     18 C6          -5.3250    -4.2580    -2.2970 cd         1 0R4       0.303400
     19 C23         -6.3630    -5.0630    -1.6240 ca         1 0R4      -0.323200
     20 C24         -7.7250    -4.8210    -1.8700 ca         1 0R4       0.547200
     21 N7          -8.0990    -3.8190    -2.7500 nv         1 0R4      -0.511500
     22 N6          -8.6530    -5.5460    -1.2650 nb         1 0R4      -0.666000
     23 C25         -8.3400    -6.5100    -0.4190 ca         1 0R4       0.477200
     24 C26         -7.0220    -6.8060    -0.1280 ca         1 0R4      -0.310300
     25 C27         -6.0090    -6.0820    -0.7360 ca         1 0R4      -0.001000
     26 N3          -4.2510    -3.6740    -1.6740 na         1 0R4       0.332900
     27 C7          -3.9490    -3.7360    -0.3060 ca         1 0R4      -0.166200
     28 C8          -4.7880    -3.1290     0.6190 ca         1 0R4      -0.072000
     29 C9          -4.4880    -3.1920     1.9650 ca         1 0R4      -0.078000
     30 C12         -2.8130    -4.4090     0.1260 ca         1 0R4      -0.072000
     31 C11         -2.5200    -4.4680     1.4750 ca         1 0R4      -0.078000
     32 C10         -3.3550    -3.8580     2.3930 ca         1 0R4      -0.108300
     33 C13         -3.0310    -3.9250     3.8630 c3         1 0R4       0.110300
     34 N4          -3.6520    -5.1150     4.4470 ns         1 0R4      -0.197900
     35 C14         -3.4970    -5.3820     5.7590 c          1 0R4       0.593700
     36 O2          -2.8410    -4.6340     6.4590 o          1 0R4      -0.645100
     37 C28         -4.1250    -6.5830     6.3480 ca         1 0R4      -0.129600
     38 C33         -4.8750    -7.4470     5.5480 ca         1 0R4      -0.121000
     39 C29         -3.9660    -6.8630     7.7070 ca         1 0R4      -0.047000
     40 C30         -4.5540    -7.9850     8.2520 ca         1 0R4      -0.086000
     41 C31         -5.3000    -8.8350     7.4560 ca         1 0R4      -0.111000
     42 C32         -5.4580    -8.5680     6.1050 ca         1 0R4       0.097900
     43 F1          -6.1840    -9.4050     5.3330 f          1 0R4      -0.126900
     44 H1           2.5720     0.8960     1.3720 hc         1 0R4       0.024033
     45 H2           2.6080    -0.8720     1.3520 hc         1 0R4       0.024033
     46 H3           1.2640    -0.0240     2.1290 hc         1 0R4       0.024033
     47 H4           2.8860     0.0460    -1.1680 hn         1 0R4       0.166500
     48 H5           2.5780     1.1170    -3.4600 ha         1 0R4       0.104000
     49 H6           1.3570     0.9320    -5.5910 ha         1 0R4       0.103000
     50 H7          -0.7130    -0.3920    -5.7210 ha         1 0R4       0.111000
     51 H8          -0.3440    -1.3680    -1.5590 ha         1 0R4       0.158000
     52 H9          -2.0480    -1.6060    -5.8690 ha         1 0R4       0.124000
     53 H10         -4.1860    -2.8340    -5.9860 ha         1 0R4       0.115000
     54 H11         -9.0690    -3.6450    -2.9270 hn         1 0R4       0.282800
     55 H12         -7.4000    -3.2690    -3.2090 hn         1 0R4       0.282800
     56 H13         -9.1310    -7.0780     0.0560 h4         1 0R4      -0.024900
     57 H14         -6.7820    -7.6010     0.5680 ha         1 0R4       0.116000
     58 H15         -4.9690    -6.2970    -0.5230 ha         1 0R4       0.107000
     59 H16         -5.6770    -2.6070     0.2840 ha         1 0R4       0.118500
     60 H17         -5.1410    -2.7170     2.6880 ha         1 0R4       0.114000
     61 H18         -2.1590    -4.8870    -0.5930 ha         1 0R4       0.118500
     62 H19         -1.6330    -4.9900     1.8130 ha         1 0R4       0.114000
     63 H20         -1.9560    -3.9780     3.9940 h1         1 0R4       0.033200
     64 H21         -3.4110    -3.0390     4.3580 h1         1 0R4       0.033200
     65 H22         -4.1930    -5.7310     3.8720 hn         1 0R4       0.183500
     66 H23         -4.9990    -7.2390     4.4920 ha         1 0R4       0.117000
     67 H24         -3.3820    -6.1980     8.3330 ha         1 0R4       0.132000
     68 H25         -4.4330    -8.2000     9.3060 ha         1 0R4       0.111000
     69 H26         -5.7600    -9.7160     7.8900 ha         1 0R4       0.119000
@<TRIPOS>BOND
     1     1     2 2   
     2     2     3 1   
     3     2     4 1   
     4     3    44 1   
     5     3    45 1   
     6     3    46 1   
     7     4     5 1   
     8     4    47 1   
     9     5     6 ar  
    10     5     9 ar  
    11     6     7 ar  
    12     6    48 1   
    13     7     8 ar  
    14     7    49 1   
    15     8    10 ar  
    16     8    50 1   
    17     9    10 ar  
    18     9    51 1   
    19    10    11 1   
    20    11    12 ar  
    21    11    14 ar  
    22    12    13 ar  
    23    12    52 1   
    24    13    16 ar  
    25    13    53 1   
    26    14    15 ar  
    27    15    16 ar  
    28    15    26 1   
    29    16    17 1   
    30    17    18 2   
    31    18    19 1   
    32    18    26 1   
    33    19    20 ar  
    34    19    25 ar  
    35    20    21 1   
    36    20    22 ar  
    37    21    54 1   
    38    21    55 1   
    39    22    23 ar  
    40    23    24 ar  
    41    23    56 1   
    42    24    25 ar  
    43    24    57 1   
    44    25    58 1   
    45    26    27 1   
    46    27    28 ar  
    47    27    30 ar  
    48    28    29 ar  
    49    28    59 1   
    50    29    32 ar  
    51    29    60 1   
    52    30    31 ar  
    53    30    61 1   
    54    31    32 ar  
    55    31    62 1   
    56    32    33 1   
    57    33    34 1   
    58    33    63 1   
    59    33    64 1   
    60    34    35 1   
    61    34    65 1   
    62    35    36 2   
    63    35    37 1   
    64    37    38 ar  
    65    37    39 ar  
    66    38    42 ar  
    67    38    66 1   
    68    39    40 ar  
    69    39    67 1   
    70    40    41 ar  
    71    40    68 1   
    72    41    42 ar  
    73    41    69 1   
    74    42    43 1   
@<TRIPOS>SUBSTRUCTURE
     1 0R4         1 TEMP              0 ****  ****    0 ROOT
