@<TRIPOS>MOLECULE
molecule
   53    55     1     0     0
SMALL
bcc


@<TRIPOS>ATOM
      1 O2G          0.0000     0.0000     0.0000 o          1 0R5      -0.737500
      2 PG           1.6100     0.0000     0.0000 p5         1 0R5       1.324900
      3 O1G          2.1460     0.0000     1.5190 o          1 0R5      -0.737500
      4 O3G          2.1040    -1.2080    -0.6980 o          1 0R5      -0.737500
      5 O3B          2.1460     1.3150    -0.7580 os         1 0R5      -0.728800
      6 PB           3.5450     1.7170    -1.4460 p5         1 0R5       1.514800
      7 O1B          4.6320     2.0430    -0.3040 o          1 0R5      -0.861500
      8 O2B          4.0270     0.5920    -2.2780 o          1 0R5      -0.861500
      9 O3A          3.3340     3.0170    -2.3730 os         1 0R5      -0.723800
     10 PA           4.1550     3.6630    -3.5970 p5         1 0R5       1.442800
     11 O1A          5.6070     3.5670    -3.3230 o          1 0R5      -0.850500
     12 O2A          3.8120     2.8690    -4.9540 o          1 0R5      -0.850500
     13 O5'          3.7420     5.2110    -3.7630 os         1 0R5      -0.567200
     14 C5'          4.3740     6.0890    -4.6970 c3         1 0R5       0.177400
     15 C4'          3.7430     7.4800    -4.5950 c3         1 0R5       0.244100
     16 C3'          4.3230     8.4140    -5.6810 c3         1 0R5       0.097100
     17 O3'          3.4370     8.4910    -6.7990 oh         1 0R5      -0.608800
     18 C2'          4.4290     9.7850    -4.9780 c3         1 0R5      -0.170400
     19 O4'          4.1010     8.1030    -3.3430 os         1 0R5      -0.369600
     20 C1'          3.9010     9.5190    -3.5510 c3         1 0R5       0.306500
     21 N1           4.6670    10.2920    -2.5710 n          1 0R5      -0.348000
     22 C2           5.9700    10.0220    -2.3930 c          1 0R5       0.799500
     23 O2           6.4840     9.1380    -3.0530 o          1 0R5      -0.610500
     24 N3           6.7240    10.6980    -1.5100 ns         1 0R5      -0.564500
     25 C4           6.1810    11.6830    -0.7640 c          1 0R5       0.709700
     26 O4           6.8580    12.3000     0.0380 o          1 0R5      -0.638500
     27 C6           4.0420    11.2750    -1.8620 cc         1 0R5       0.031600
     28 C5           4.7540    11.9970    -0.9410 cd         1 0R5      -0.120900
     29 C5M          4.1300    13.0360    -0.1790 ch         1 0R5      -0.196300
     30 C30          3.6030    13.8750     0.4510 cg         1 0R5      -0.078000
     31 C31          2.8940    15.3360     1.1600 ca         1 0R5       0.002000
     32 C36          1.8680    15.9950     0.9200 ca         1 0R5      -0.125000
     33 C35          1.4810    17.1100     1.5840 ca         1 0R5      -0.167000
     34 C34          2.4080    17.4850     2.6470 ca         1 0R5      -0.085000
     35 C37          1.9640    18.8440     3.0730 cg         1 0R5      -0.060000
     36 C38          1.8630    19.9150     3.5900 c1         1 0R5      -0.337500
     37 C33          3.1650    16.7110     3.2440 ca         1 0R5      -0.167000
     38 C32          3.6620    15.9890     2.3400 ca         1 0R5      -0.125000
     39 H5           3.6190     6.5660    -5.3120 h1         1 0R5       0.037700
     40 H6           5.0470     5.5210    -5.3270 h1         1 0R5       0.037700
     41 H7           2.6660     7.4190    -4.6890 h1         1 0R5       0.048700
     42 H8           5.3030     8.0710    -5.9890 h1         1 0R5       0.061700
     43 H9           3.9340     8.6510    -7.5840 ho         1 0R5       0.385000
     44 H10          3.9920    10.5580    -5.5990 hc         1 0R5       0.057700
     45 H11          5.4660    10.0130    -4.7600 hc         1 0R5       0.057700
     46 H12          2.8470     9.7620    -3.4900 h2         1 0R5       0.055700
     47 H13          7.6150    10.3380    -1.2290 hn         1 0R5       0.354500
     48 H14          2.9760    11.4320    -1.9760 h4         1 0R5       0.165000
     49 H15          1.2900    15.7150     0.0480 ha         1 0R5       0.085000
     50 H16          0.7130    17.7500     1.1660 ha         1 0R5       0.109500
     51 H17          1.7540    20.8830     4.0640 ha         1 0R5       0.129500
     52 H18          3.5500    17.2000     4.1310 ha         1 0R5       0.109500
     53 H19          4.6220    15.8230     2.8140 ha         1 0R5       0.085000
@<TRIPOS>BOND
     1     4     2 1
     2     1     2 1
     3     2     3 1
     4     2     5 1
     5     8     6 1
     6    11    10 1
     7     5     6 1
     8     6     7 1
     9     6     9 1
    10    14    13 1
    11    14    15 1
    12    10     9 1
    13    10    13 1
    14    10    12 1
    15    17    16 1
    16    15    16 1
    17    15    19 1
    18    16    18 1
    19    19    20 1
    20    18    20 1
    21    33    32 ar
    22    33    34 ar
    23    20    21 1
    24    32    31 ar
    25    36    35 3
    26    35    34 1
    27    34    37 ar
    28    27    21 1
    29    27    28 2
    30    21    22 1
    31    31    30 1
    32    31    38 ar
    33    30    29 3
    34    29    28 1
    35    28    25 1
    36    37    38 ar
    37    22    23 2
    38    22    24 1
    39    25    24 1
    40    25    26 2
    41    14    39 1
    42    14    40 1
    43    15    41 1
    44    16    42 1
    45    17    43 1
    46    18    44 1
    47    18    45 1
    48    20    46 1
    49    24    47 1
    50    27    48 1
    51    32    49 1
    52    33    50 1
    53    36    51 1
    54    37    52 1
    55    38    53 1
@<TRIPOS>SUBSTRUCTURE
     1 0R5         1 TEMP              0 ****  ****    0 ROOT
