@<TRIPOS>MOLECULE
0R5
   53    55     1     0     0
SMALL
bcc


@<TRIPOS>ATOM
      1 O2G          0.7490    -1.7890    -2.6700 o          1 0R5      -0.961833
      2 PG           1.9890    -1.1910    -2.0640 p5         1 0R5       1.463900
      3 O1G          2.2540    -1.6240    -0.6490 o          1 0R5      -0.961833
      4 O3G          3.1960    -1.2420    -2.9630 o          1 0R5      -0.961833
      5 O3B          1.6540     0.5690    -1.9520 os         1 0R5      -0.815800
      6 PB           1.5840     2.1160    -2.0480 p5         1 0R5       1.721800
      7 O1B          2.7180     2.8740    -1.4600 o          1 0R5      -0.948500
      8 O2B          1.1460     2.6480    -3.3810 o          1 0R5      -0.948500
      9 O3A          0.2640     2.6860    -1.0630 os         1 0R5      -0.818800
     10 PA          -0.8310     3.4330    -0.2300 p5         1 0R5       1.614800
     11 O1A         -2.2360     3.0990    -0.5740 o          1 0R5      -0.915500
     12 O2A         -0.5120     3.7020     1.1990 o          1 0R5      -0.915500
     13 O5'         -0.6800     5.0120    -0.8990 os         1 0R5      -0.600200
     14 C5'         -1.3820     5.2120    -2.0700 c3         1 0R5       0.200400
     15 C4'         -0.5620     5.8940    -3.1720 c3         1 0R5       0.087100
     16 C3'          0.9100     5.4600    -3.2710 c3         1 0R5       0.139100
     17 O3'          1.2180     5.1360    -4.6110 oh         1 0R5      -0.685800
     18 C2'          1.7240     6.6900    -2.8450 c3         1 0R5      -0.120400
     19 O4'         -0.5890     7.3400    -3.0010 os         1 0R5      -0.455600
     20 C1'          0.7100     7.8440    -2.7430 c3         1 0R5       0.302500
     21 N1           0.7130     8.5360    -1.4260 n          1 0R5      -0.350000
     22 C2           0.9440     9.9280    -1.3980 c          1 0R5       0.795500
     23 O2           1.2480    10.6060    -2.4130 o          1 0R5      -0.706500
     24 N3           0.8520    10.5980    -0.1660 ns         1 0R5      -0.603500
     25 C4           0.5120     9.9570     1.0420 c          1 0R5       0.729700
     26 O4           0.4470    10.6810     2.0590 o          1 0R5      -0.691500
     27 C6           0.3630     7.8700    -0.2740 cc         1 0R5       0.138600
     28 C5           0.2710     8.5180     0.9500 cd         1 0R5      -0.195900
     29 C5M         -0.0490     7.8070     2.1070 ch         1 0R5      -0.066300
     30 C30         -0.3220     7.1650     3.0840 cg         1 0R5      -0.122000
     31 C31         -0.6370     6.3520     4.1840 ca         1 0R5       0.063000
     32 C36         -0.7480     4.9580     4.0130 ca         1 0R5      -0.119000
     33 C35         -1.0620     4.1590     5.1100 ca         1 0R5      -0.119000
     34 C34         -1.2700     4.7240     6.3800 ca         1 0R5      -0.050000
     35 C37         -1.5890     3.9140     7.4870 cg         1 0R5      -0.038000
     36 C38         -1.8620     3.2300     8.4320 c1         1 0R5      -0.258500
     37 C33         -1.1550     6.1160     6.5410 ca         1 0R5      -0.119000
     38 C32         -0.8420     6.9210     5.4540 ca         1 0R5      -0.119000
     39 H5          -1.7490     4.2250    -2.4780 h1         1 0R5       0.024700
     40 H6          -2.2710     5.8840    -1.8710 h1         1 0R5       0.024700
     41 H7          -1.0800     5.7380    -4.1590 h1         1 0R5       0.047700
     42 H8           1.1290     4.5610    -2.6040 h1         1 0R5       0.187700
     43 H9           1.3020     4.1550    -4.6260 ho         1 0R5       0.496000
     44 H10          2.2330     6.4690    -1.8750 hc         1 0R5       0.068200
     45 H11          2.4980     6.9400    -3.6100 hc         1 0R5       0.068200
     46 H12          0.9020     8.6490    -3.5130 h2         1 0R5       0.069700
     47 H13          1.0300    11.5760    -0.1690 hn         1 0R5       0.316500
     48 H14          0.1470     6.7610    -0.3890 h4         1 0R5       0.301000
     49 H15         -0.5890     4.4950     2.9950 ha         1 0R5       0.207500
     50 H16         -1.1450     3.0700     4.9660 ha         1 0R5       0.126000
     51 H17         -2.0990     2.6070     9.2510 ha         1 0R5       0.140500
     52 H18         -1.3140     6.5650     7.5310 ha         1 0R5       0.126000
     53 H19         -0.7520     8.0080     5.5830 ha         1 0R5       0.207500
@<TRIPOS>BOND
     1     1     2 1   
     2     2     3 1   
     3     2     4 1   
     4     2     5 1   
     5     5     6 1   
     6     6     7 1   
     7     6     8 1   
     8     6     9 1   
     9     9    10 1   
    10    10    11 1   
    11    10    12 1   
    12    10    13 1   
    13    13    14 1   
    14    14    15 1   
    15    14    39 1   
    16    14    40 1   
    17    15    16 1   
    18    15    19 1   
    19    15    41 1   
    20    16    17 1   
    21    16    18 1   
    22    16    42 1   
    23    17    43 1   
    24    18    20 1   
    25    18    44 1   
    26    18    45 1   
    27    19    20 1   
    28    20    21 1   
    29    20    46 1   
    30    21    22 1   
    31    21    27 1   
    32    22    23 2   
    33    22    24 1   
    34    24    25 1   
    35    24    47 1   
    36    25    26 2   
    37    25    28 1   
    38    27    28 2   
    39    27    48 1   
    40    28    29 1   
    41    29    30 3   
    42    30    31 1   
    43    31    32 ar  
    44    31    38 ar  
    45    32    33 ar  
    46    32    49 1   
    47    33    34 ar  
    48    33    50 1   
    49    34    35 1   
    50    34    37 ar  
    51    35    36 3   
    52    36    51 1   
    53    37    38 ar  
    54    37    52 1   
    55    38    53 1   
@<TRIPOS>SUBSTRUCTURE
     1 0R5         1 TEMP              0 ****  ****    0 ROOT
