@<TRIPOS>MOLECULE
molecule
   55    57     1     0     0
SMALL
bcc


@<TRIPOS>ATOM
      1 O2           0.0000     0.0000     0.0000 o          1 0R6      -0.635500
      2 C2           1.2190     0.0000     0.0000 c          1 0R6       0.816900
      3 N3           1.8630     0.0000     1.1650 nc         1 0R6      -0.712100
      4 C4           3.1880    -0.0000     1.2130 cd         1 0R6       0.449500
      5 N4           3.8440     0.0010     2.4190 nz         1 0R6      -0.933600
      6 C5           3.9400    -0.0010    -0.0470 cd         1 0R6      -0.237300
      7 C29          5.3730    -0.0020    -0.0500 ch         1 0R6      -0.136300
      8 C30          6.5470     0.0070    -0.0720 cg         1 0R6      -0.198000
      9 C31          7.9080    -0.2210     0.3620 ca         1 0R6       0.036000
     10 C36          8.3500    -1.1830     1.1720 ca         1 0R6      -0.143500
     11 C35          9.7990    -1.1240     1.4070 ca         1 0R6      -0.101000
     12 C34         10.5870    -0.2780     0.9210 ca         1 0R6      -0.042000
     13 C37         12.2120     0.1460     1.3160 cg         1 0R6      -0.079000
     14 C38         13.2010     0.3360     1.5420 c1         1 0R6      -0.185500
     15 C33          9.9830     0.7890     0.0000 ca         1 0R6      -0.101000
     16 C32          8.9510     0.7330    -0.1570 ca         1 0R6      -0.143500
     17 C6           3.2260    -0.0020    -1.2300 cc         1 0R6       0.077600
     18 N1           1.8680    -0.0070    -1.1760 n          1 0R6      -0.342000
     19 C1'          1.0980    -0.0090    -2.4230 c3         1 0R6       0.277500
     20 C2'          0.3010    -1.3220    -2.5450 c3         1 0R6      -0.210400
     21 C3'         -1.1740    -0.8610    -2.6520 c3         1 0R6       0.207100
     22 O3'         -1.8810    -1.6380    -3.6220 oh         1 0R6      -0.665800
     23 O4'          0.1490     1.0720    -2.4130 os         1 0R6      -0.357600
     24 C4'         -1.0220     0.6080    -3.1220 c3         1 0R6       0.174100
     25 C5'         -2.2520     1.4290    -2.7270 c3         1 0R6       0.147400
     26 O5'         -2.1390     2.7460    -3.2720 os         1 0R6      -0.649200
     27 PA          -3.2580     3.8820    -3.0540 p5         1 0R6       1.449800
     28 O1A         -4.6260     3.4340    -3.7760 o          1 0R6      -0.841500
     29 O2A         -3.5020     4.0650    -1.6050 o          1 0R6      -0.841500
     30 O3A         -2.7450     5.2690    -3.6910 os         1 0R6      -0.723800
     31 PB          -3.1470     6.8140    -3.4790 p5         1 0R6       1.567800
     32 O1B         -2.4380     7.3750    -2.1470 o          1 0R6      -0.693500
     33 O2B         -4.6160     6.9260    -3.3410 o          1 0R6      -0.693500
     34 O3B         -2.6610     7.6740    -4.7500 os         1 0R6      -0.712800
     35 PG          -3.0020     9.1480    -5.2990 p5         1 0R6       1.289900
     36 O3G         -4.4630     9.1440    -5.9760 o          1 0R6      -0.610167
     37 O1G         -1.9040     9.5800    -6.3950 o          1 0R6      -0.610167
     38 O2G         -2.9820    10.1110    -4.1750 o          1 0R6      -0.610167
     39 H1           3.9040     0.9280     2.7910 hn         1 0R6       0.354800
     40 H2           4.8080    -0.1460     2.1930 hn         1 0R6       0.354800
     41 H3           7.9880    -2.1780     1.3990 ha         1 0R6       0.126000
     42 H4          10.3170    -1.6770     2.1820 ha         1 0R6       0.109500
     43 H5          14.1340     0.5300     2.0580 ha         1 0R6       0.124500
     44 H6          10.5620     1.6520    -0.3050 ha         1 0R6       0.109500
     45 H7           8.3860     1.5810    -0.5270 ha         1 0R6       0.126000
     46 H8           3.7400    -0.3390    -2.1220 h4         1 0R6       0.140000
     47 H9           1.7620     0.0960    -3.2720 h2         1 0R6       0.037700
     48 H10          0.1220    -1.4040    -3.6100 hc         1 0R6       0.061200
     49 H11          1.1960    -1.9260    -2.4610 hc         1 0R6       0.061200
     50 H12         -1.6600    -0.9050    -1.6850 h1         1 0R6       0.075700
     51 H13         -2.5260    -2.2840    -3.3860 ho         1 0R6       0.415000
     52 H14         -0.8580     0.6480    -4.1910 h1         1 0R6       0.058700
     53 H15         -2.7940     1.6030    -1.8060 h1         1 0R6       0.102200
     54 H16         -2.8430     1.4080    -3.6340 h1         1 0R6       0.102200
     55 H43          4.7820     0.3390     2.5060 hn         1 0R6       0.354800
@<TRIPOS>BOND
     1    37    35 1
     2    36    35 1
     3    35    38 1
     4    35    34 1
     5    32    31 1
     6    28    27 1
     7    34    31 1
     8    31    33 1
     9    31    30 1
    10    25    26 1
    11    25    24 1
    12    27    30 1
    13    27    26 1
    14    27    29 1
    15    22    21 1
    16    24    21 1
    17    24    23 1
    18    21    20 1
    19    23    19 1
    20    20    19 1
    21    15    16 ar
    22    15    12 ar
    23    19    18 1
    24    16     9 ar
    25    14    13 3
    26    13    12 1
    27    12    11 ar
    28    17    18 1
    29    17     6 2
    30    18     2 1
    31     9     8 1
    32     9    10 ar
    33     8     7 3
    34     7     6 1
    35     6     4 1
    36    11    10 ar
    37     2     1 2
    38     2     3 1
    39     4     3 2
    40     4     5 1
    41     5    39 1
    42     5    40 1
    43    10    41 1
    44    11    42 1
    45    14    43 1
    46    15    44 1
    47    16    45 1
    48    17    46 1
    49    19    47 1
    50    20    48 1
    51    20    49 1
    52    21    50 1
    53    22    51 1
    54    24    52 1
    55    25    53 1
    56    25    54 1
    57    55     5 1
@<TRIPOS>SUBSTRUCTURE
     1 0R6         1 TEMP              0 ****  ****    0 ROOT
