@<TRIPOS>MOLECULE
0R7
   54    56     1     0     0
SMALL
bcc


@<TRIPOS>ATOM
      1 O5'          0.0000     0.0000     0.0000 os         1 0R7      -0.467200
      2 P1           1.6090     0.0000     0.0000 p5         1 0R7       0.978800
      3 O1           2.1470     0.0000     1.5170 os         1 0R7      -0.497800
      4 P2           3.5460     0.3970     2.2080 p5         1 0R7       1.097800
      5 O3           3.6440    -0.2980     3.6580 os         1 0R7      -0.473800
      6 P3           4.8490    -0.5580     4.6930 p5         1 0R7       0.876900
      7 O5           4.4360    -1.7350     5.7120 o          1 0R7      -0.466167
      8 O6           5.1450     0.7900     5.5230 o          1 0R7      -0.466167
      9 O7           6.0640    -0.9550     3.9480 o          1 0R7      -0.466167
     10 O8           3.6300     1.9960     2.3720 o          1 0R7      -0.478500
     11 O9           4.6650    -0.0720     1.3600 o          1 0R7      -0.478500
     12 O10          2.1460    -1.3150    -0.7600 o          1 0R7      -0.676500
     13 O11          2.1030     1.2080    -0.6980 o          1 0R7      -0.676500
     14 C1'         -3.9570     1.6780    -0.5410 c3         1 0R7       0.260500
     15 N1          -3.9180     3.0240    -1.1210 n          1 0R7      -0.008000
     16 C6          -2.7710     3.4690    -1.6990 cc         1 0R7      -0.095400
     17 C5          -2.7470     4.7390    -2.2420 cd         1 0R7      -0.067300
     18 C1          -1.5630     5.2540    -2.8620 ch         1 0R7      -0.102300
     19 C3          -0.5950     5.6630    -3.3860 cg         1 0R7      -0.286000
     20 N2          -5.0420     5.0260    -1.5810 nc         1 0R7      -0.803100
     21 C4          -3.9710     5.5450    -2.1640 cd         1 0R7      -0.199500
     22 C2          -5.0170     3.7940    -1.0760 c          1 0R7       0.722900
     23 O2          -6.0260     3.3510    -0.5530 o          1 0R7      -0.862500
     24 N3          -4.0060     6.8150    -2.6870 nz         1 0R7       0.340400
     25 O4'         -2.6390     1.2800    -0.1490 os         1 0R7      -0.380600
     26 C4'         -2.2670     0.0740    -0.8360 c3         1 0R7       0.144100
     27 C3'         -3.1290     0.0600    -2.1240 c3         1 0R7      -0.113400
     28 C2'         -4.4590     0.6680    -1.5960 c3         1 0R7      -0.085400
     29 C5'         -0.7790     0.1040    -1.1930 c3         1 0R7       0.353400
     30 C01          0.6960     6.4410    -3.7610 ca         1 0R7       0.203000
     31 C02          1.4850     6.0190    -4.2480 ca         1 0R7      -0.131500
     32 C03          2.6460     6.4520    -4.6620 ca         1 0R7      -0.154500
     33 C04          2.8860     8.0180    -4.3220 ca         1 0R7      -0.026000
     34 C05          1.9460     8.4850    -3.7510 ca         1 0R7      -0.154500
     35 C            0.2680     7.8080    -3.7620 ca         1 0R7      -0.131500
     36 C7           4.1180     8.7800    -4.6730 cg         1 0R7      -0.038000
     37 C8           4.9510     9.3250    -5.0040 c1         1 0R7      -0.191500
     38 H5          -4.6140     1.6630     0.3200 h2         1 0R7       0.046700
     39 H6          -2.1370     2.6650    -2.0540 h4         1 0R7       0.133000
     40 H7          -3.5610     7.5370    -2.1560 hn         1 0R7       0.100467
     41 H8          -4.9610     7.0930    -2.5780 hn         1 0R7       0.100467
     42 H9          -2.4950    -0.7900    -0.2240 h1         1 0R7       0.004700
     43 H10         -3.4450    -0.8350    -2.6470 hc         1 0R7       0.018700
     44 H11         -2.7820     0.8370    -2.7940 hc         1 0R7       0.018700
     45 H12         -4.8810    -0.2670    -1.2460 hc         1 0R7       0.010700
     46 H13         -4.9430     0.8960    -2.5370 hc         1 0R7       0.010700
     47 H14         -0.8070    -0.7400    -1.8710 h1         1 0R7      -0.037300
     48 H15         -0.7880     0.9530    -1.8660 h1         1 0R7      -0.037300
     49 H16          1.5920     4.9420    -4.2910 ha         1 0R7       0.128000
     50 H17          3.5740     5.9800    -4.9610 ha         1 0R7       0.084000
     51 H18          1.9640     9.5310    -3.4710 ha         1 0R7       0.084000
     52 H19         -0.4440     8.6120    -3.6190 ha         1 0R7       0.128000
     53 H20          5.9440     9.6720    -5.2600 ha         1 0R7       0.109500
     54 H33         -4.0500     6.8030    -3.6870 hn         1 0R7       0.100467
@<TRIPOS>BOND
     1     1     2 1   
     2     1    29 1   
     3     2     3 1   
     4     2    12 1   
     5     2    13 1   
     6     3     4 1   
     7     4     5 1   
     8     4    10 1   
     9     4    11 1   
    10     5     6 1   
    11     6     7 1   
    12     6     8 1   
    13     6     9 1   
    14    14    15 1   
    15    14    25 1   
    16    14    28 1   
    17    14    38 1   
    18    15    16 1   
    19    15    22 1   
    20    16    17 2   
    21    16    39 1   
    22    17    18 1   
    23    17    21 1   
    24    18    19 3   
    25    19    30 1   
    26    20    21 2   
    27    20    22 1   
    28    21    24 1   
    29    22    23 2   
    30    24    40 1   
    31    24    41 1   
    32    24    54 1   
    33    25    26 1   
    34    26    27 1   
    35    26    29 1   
    36    26    42 1   
    37    27    28 1   
    38    27    43 1   
    39    27    44 1   
    40    28    45 1   
    41    28    46 1   
    42    29    47 1   
    43    29    48 1   
    44    30    31 ar  
    45    30    35 ar  
    46    31    32 ar  
    47    31    49 1   
    48    32    33 ar  
    49    32    50 1   
    50    33    34 ar  
    51    33    36 1   
    52    34    35 ar  
    53    34    51 1   
    54    35    52 1   
    55    36    37 3   
    56    37    53 1   
@<TRIPOS>SUBSTRUCTURE
     1 0R7         1 TEMP              0 ****  ****    0 ROOT
