@<TRIPOS>MOLECULE
0R7
   54    57     1     0     0
SMALL
bcc


@<TRIPOS>ATOM
      1 O5'          1.9990     0.6740     1.0120 os         1 0R7      -0.588200
      2 P1           2.7800     1.8890     0.2050 p5         1 0R7       1.593800
      3 O1           2.1350     3.2130     0.9440 os         1 0R7      -0.813800
      4 P2           1.8530     4.5620     1.7570 p5         1 0R7       1.695800
      5 O3           3.4950     4.6680     2.4580 os         1 0R7      -0.757800
      6 P3           4.9090     4.5870     2.9980 p5         1 0R7       1.752500
      7 O5           5.3020     3.8220     4.1680 o          1 0R7      -0.828300
      8 O6           6.0820     5.1480     1.9850 op         1 0R7      -0.385400
      9 O7           5.6710     6.0670     2.8720 op         1 0R7      -0.385400
     10 O8           1.0180     4.3540     2.9420 o          1 0R7      -0.860500
     11 O9           1.7580     5.7350     0.8870 o          1 0R7      -0.860500
     12 O10          4.1850     1.8600     0.6540 o          1 0R7      -0.872000
     13 O11          2.3360     1.8170    -1.1980 o          1 0R7      -0.872000
     14 C1'         -1.9590    -1.4750     1.7970 c3         1 0R7       0.287500
     15 N1          -2.1220    -2.8890     1.4910 n          1 0R7      -0.377000
     16 C6          -1.3630    -3.5160     0.5720 cc         1 0R7       0.110600
     17 C5          -1.5330    -4.8780     0.2910 cd         1 0R7      -0.311300
     18 C1          -0.7910    -5.5200    -0.6700 ch         1 0R7       0.071700
     19 C3          -0.1510    -6.1610    -1.4810 cg         1 0R7      -0.373000
     20 N2          -3.5270    -4.9100     1.7430 nc         1 0R7      -0.806100
     21 C4          -2.5930    -5.6440     1.0170 cd         1 0R7       0.250500
     22 C2          -3.3150    -3.6200     2.0600 c          1 0R7       0.788900
     23 O2          -4.0660    -2.8840     2.7640 o          1 0R7      -0.781500
     24 N3          -1.9200    -6.7540     1.8230 nz         1 0R7      -0.771600
     25 O4'         -1.3150    -0.7690     0.7140 os         1 0R7      -0.455600
     26 C4'         -0.3360     0.1580     1.2260 c3         1 0R7       0.121100
     27 C3'         -0.1290    -0.1310     2.7110 c3         1 0R7      -0.104400
     28 C2'         -1.1470    -1.1910     3.0850 c3         1 0R7      -0.104400
     29 C5'          0.9460     0.0130     0.3900 c3         1 0R7       0.185400
     30 C01          0.5630    -6.8890    -2.4140 ca         1 0R7       0.168000
     31 C02          1.6150    -6.3020    -3.1560 ca         1 0R7      -0.181000
     32 C03          2.3310    -7.0420    -4.0820 ca         1 0R7      -0.083500
     33 C04          2.0290    -8.3980    -4.3090 ca         1 0R7      -0.095000
     34 C05          0.9820    -8.9890    -3.5790 ca         1 0R7      -0.083500
     35 C            0.2640    -8.2520    -2.6520 ca         1 0R7      -0.181000
     36 C7           2.7580    -9.1480    -5.2470 cg         1 0R7      -0.046000
     37 C8           3.3800    -9.7890    -6.0470 c1         1 0R7      -0.255500
     38 H5          -2.9990    -1.0370     1.8880 h2         1 0R7       0.083700
     39 H6          -0.6020    -2.9110     0.0340 h4         1 0R7       0.143000
     40 H7          -1.3750    -7.2850     1.1490 hn         1 0R7       0.327133
     41 H8          -2.6650    -7.3450     2.1790 hn         1 0R7       0.327133
     42 H9          -0.7720     1.1830     1.0780 h1         1 0R7       0.054700
     43 H10         -0.2690     0.8050     3.3060 hc         1 0R7       0.069700
     44 H11          0.9190    -0.4810     2.8880 hc         1 0R7       0.069700
     45 H12         -1.8470    -0.8330     3.8780 hc         1 0R7       0.044700
     46 H13         -0.6430    -2.1110     3.4700 hc         1 0R7       0.044700
     47 H14          0.7710     0.4180    -0.6450 h1         1 0R7       0.036200
     48 H15          1.1990    -1.0840     0.3240 h1         1 0R7       0.036200
     49 H16          1.8570    -5.2420    -2.9860 ha         1 0R7       0.138000
     50 H17          3.1470    -6.5690    -4.6490 ha         1 0R7       0.113000
     51 H18          0.7350   -10.0460    -3.7510 ha         1 0R7       0.113000
     52 H19         -0.5580    -8.7200    -2.0910 ha         1 0R7       0.138000
     53 H20          3.9300   -10.3490    -6.7530 ha         1 0R7       0.145500
     54 H33         -1.3000    -6.5250     2.6220 hn         1 0R7       0.327133
@<TRIPOS>BOND
     1     1     2 1   
     2     1    29 1   
     3     2     3 1   
     4     2    12 1   
     5     2    13 1   
     6     3     4 1   
     7     4     5 1   
     8     4    10 1   
     9     4    11 1   
    10     5     6 1   
    11     6     7 2   
    12     6     8 1   
    13     6     9 1   
    14     8     9 1   
    15    14    15 1   
    16    14    25 1   
    17    14    28 1   
    18    14    38 1   
    19    15    16 1   
    20    15    22 1   
    21    16    17 2   
    22    16    39 1   
    23    17    18 1   
    24    17    21 1   
    25    18    19 3   
    26    19    30 1   
    27    20    21 2   
    28    20    22 1   
    29    21    24 1   
    30    22    23 2   
    31    24    40 1   
    32    24    41 1   
    33    24    54 1   
    34    25    26 1   
    35    26    27 1   
    36    26    29 1   
    37    26    42 1   
    38    27    28 1   
    39    27    43 1   
    40    27    44 1   
    41    28    45 1   
    42    28    46 1   
    43    29    47 1   
    44    29    48 1   
    45    30    31 ar  
    46    30    35 ar  
    47    31    32 ar  
    48    31    49 1   
    49    32    33 ar  
    50    32    50 1   
    51    33    34 ar  
    52    33    36 1   
    53    34    35 ar  
    54    34    51 1   
    55    35    52 1   
    56    36    37 3   
    57    37    53 1   
@<TRIPOS>SUBSTRUCTURE
     1 0R7         1 TEMP              0 ****  ****    0 ROOT
