@<TRIPOS>MOLECULE
0R9
   46    49     1     0     0
SMALL
bcc


@<TRIPOS>ATOM
      1 C1           0.0000     0.0000     0.0000 c3         1 0R9      -0.008100
      2 C2           1.5300     0.0000     0.0000 c3         1 0R9       0.055000
      3 N3           2.0200     0.0000     1.3810 ns         1 0R9      -0.209900
      4 C4           3.3440     0.0000     1.6260 c          1 0R9       0.628300
      5 O5           4.1350    -0.0010     0.7010 o          1 0R9      -0.636100
      6 C6           3.8350     0.0010     3.0110 cc         1 0R9      -0.339300
      7 C7           5.1420     0.0060     3.3850 cd         1 0R9      -0.067200
      8 C8           5.1810     0.0050     4.7980 ca         1 0R9      -0.229100
      9 C9           6.2290     0.0090     5.7380 ca         1 0R9      -0.094200
     10 C10          5.8890     0.0060     7.0960 cp         1 0R9      -0.083300
     11 C11          4.5430     0.0010     7.4590 ca         1 0R9       0.443200
     12 N12          3.5880    -0.0030     6.5560 nb         1 0R9      -0.581000
     13 C13          3.8480    -0.0010     5.2530 ca         1 0R9       0.236800
     14 N14          3.0410     0.0020     4.1430 na         1 0R9       0.270900
     15 C15          6.9480     0.0100     8.1350 cp         1 0R9      -0.223300
     16 C16          6.9760     1.0050     9.1130 ca         1 0R9      -0.020000
     17 C17          7.9950     0.9620    10.0690 ca         1 0R9      -0.211900
     18 C18          8.9370    -0.0670    10.0080 ca         1 0R9       0.442200
     19 N19          8.8740    -0.9860     9.0670 nb         1 0R9      -0.620000
     20 C20          7.9260    -0.9840     8.1510 ca         1 0R9       0.383200
     21 C21          8.0750     1.9900    11.1280 c          1 0R9       0.977200
     22 O22          7.2510     2.8810    11.1720 o          1 0R9      -0.876800
     23 O23          9.0610     1.9380    12.0440 o          1 0R9      -0.876800
     24 N24          7.5620     0.0150     5.3300 na         1 0R9       0.649300
     25 C25          8.1140    -0.7920     4.3850 cc         1 0R9      -0.272300
     26 C26          9.4240    -0.4690     4.2860 cd         1 0R9      -0.274300
     27 C27          9.6840     0.5640     5.1940 cd         1 0R9       0.241600
     28 N28          8.5700     0.8580     5.8140 nc         1 0R9      -0.547800
     29 C29         11.0180     1.2290     5.4140 c3         1 0R9       0.574600
     30 F30         12.0430     0.3130     5.1550 f          1 0R9      -0.205633
     31 F31         11.1420     2.3230     4.5530 f          1 0R9      -0.205633
     32 F32         11.1070     1.6660     6.7410 f          1 0R9      -0.205633
     33 H1          -0.3610    -0.8850     0.5100 hc         1 0R9       0.007033
     34 H2          -0.3610     0.0000    -1.0210 hc         1 0R9       0.007033
     35 H3          -0.3610     0.8840     0.5110 hc         1 0R9       0.007033
     36 H4           1.8910    -0.8840    -0.5110 h1         1 0R9       0.025700
     37 H5           1.8910     0.8840    -0.5110 h1         1 0R9       0.025700
     38 H6           1.3700    -0.0020     2.1420 hn         1 0R9       0.167500
     39 H7           5.9930     0.1200     2.7240 ha         1 0R9       0.148000
     40 H8           4.2780    -0.0010     8.5100 h4         1 0R9       0.000100
     41 H9           2.0400     0.0050     4.1520 hn         1 0R9       0.114700
     42 H10          6.2290     1.7890     9.1310 ha         1 0R9       0.127000
     43 H11          9.7320    -0.1080    10.7430 h4         1 0R9       0.009100
     44 H12          7.9120    -1.7600     7.3950 h4         1 0R9      -0.041900
     45 H14          7.5980    -1.5550     3.8150 h4         1 0R9       0.154000
     46 H15         10.1450    -0.9310     3.6220 ha         1 0R9       0.139000
@<TRIPOS>BOND
     1     1     2 1   
     2     1    33 1   
     3     1    34 1   
     4     1    35 1   
     5     2     3 1   
     6     2    36 1   
     7     2    37 1   
     8     3     4 1   
     9     3    38 1   
    10     4     5 2   
    11     4     6 1   
    12     6     7 2   
    13     6    14 1   
    14     7     8 1   
    15     7    39 1   
    16     8     9 ar  
    17     8    13 ar  
    18     9    10 ar  
    19     9    24 1   
    20    10    11 ar  
    21    10    15 1   
    22    11    12 ar  
    23    11    40 1   
    24    12    13 ar  
    25    13    14 1   
    26    14    41 1   
    27    15    16 ar  
    28    15    20 ar  
    29    16    17 ar  
    30    16    42 1   
    31    17    18 ar  
    32    17    21 1   
    33    18    19 ar  
    34    18    43 1   
    35    19    20 ar  
    36    20    44 1   
    37    21    22 1   
    38    21    23 1   
    39    24    25 1   
    40    24    28 1   
    41    25    26 2   
    42    25    45 1   
    43    26    27 1   
    44    26    46 1   
    45    27    28 2   
    46    27    29 1   
    47    29    30 1   
    48    29    31 1   
    49    29    32 1   
@<TRIPOS>SUBSTRUCTURE
     1 0R9         1 TEMP              0 ****  ****    0 ROOT
