@<TRIPOS>MOLECULE
molecule
   46    49     1     0     0
SMALL
bcc


@<TRIPOS>ATOM
      1 C1           0.0000     0.0000     0.0000 c3         1 0R9      -0.113100
      2 C2           1.5300     0.0000     0.0000 c3         1 0R9       0.112000
      3 N3           2.0200     0.0000     1.3810 ns         1 0R9      -0.589900
      4 C4           3.3440     0.0000     1.6260 c          1 0R9       0.697300
      5 O5           4.1350    -0.0010     0.7010 o          1 0R9      -0.596100
      6 C6           3.8350     0.0010     3.0110 cc         1 0R9      -0.141300
      7 C7           5.1420     0.0060     3.3850 cd         1 0R9      -0.097200
      8 C8           5.1810     0.0050     4.7980 ca         1 0R9      -0.243100
      9 C9           6.2290     0.0090     5.7380 ca         1 0R9       0.094800
     10 C10          5.8890     0.0060     7.0960 cp         1 0R9      -0.133300
     11 C11          4.5430     0.0010     7.4590 ca         1 0R9       0.485200
     12 N12          3.5880    -0.0030     6.5560 nb         1 0R9      -0.726000
     13 C13          3.8480    -0.0010     5.2530 ca         1 0R9       0.481800
     14 N14          3.0410     0.0020     4.1430 na         1 0R9      -0.276100
     15 C15          6.9480     0.0100     8.1350 cp         1 0R9      -0.214300
     16 C16          6.9760     1.0050     9.1130 ca         1 0R9      -0.052000
     17 C17          7.9950     0.9620    10.0690 ca         1 0R9      -0.218900
     18 C18          8.9370    -0.0670    10.0080 ca         1 0R9       0.452200
     19 N19          8.8740    -0.9860     9.0670 nb         1 0R9      -0.723000
     20 C20          7.9260    -0.9840     8.1510 ca         1 0R9       0.411200
     21 C21          8.0750     1.9900    11.1280 c          1 0R9       0.885200
     22 O22          7.2510     2.8810    11.1720 o          1 0R9      -0.830300
     23 O23          9.0610     1.9380    12.0440 o          1 0R9      -0.830300
     24 N24          7.5620     0.0150     5.3300 na         1 0R9       0.158300
     25 C25          8.1140    -0.7920     4.3850 cc         1 0R9      -0.107300
     26 C26          9.4240    -0.4690     4.2860 cd         1 0R9      -0.310300
     27 C27          9.6840     0.5640     5.1940 cd         1 0R9       0.245600
     28 N28          8.5700     0.8580     5.8140 nc         1 0R9      -0.403800
     29 C29         11.0180     1.2290     5.4140 c3         1 0R9       0.615600
     30 F30         12.0430     0.3130     5.1550 f          1 0R9      -0.213967
     31 F31         11.1420     2.3230     4.5530 f          1 0R9      -0.213967
     32 F32         11.1070     1.6660     6.7410 f          1 0R9      -0.213967
     33 H1          -0.3610    -0.8850     0.5100 hc         1 0R9       0.042033
     34 H2          -0.3610     0.0000    -1.0210 hc         1 0R9       0.042033
     35 H3          -0.3610     0.8840     0.5110 hc         1 0R9       0.042033
     36 H4           1.8910    -0.8840    -0.5110 h1         1 0R9       0.053700
     37 H5           1.8910     0.8840    -0.5110 h1         1 0R9       0.053700
     38 H6           1.3700    -0.0020     2.1420 hn         1 0R9       0.308500
     39 H7           5.9930     0.1200     2.7240 ha         1 0R9       0.175000
     40 H8           4.2780    -0.0010     8.5100 h4         1 0R9       0.050100
     41 H9           2.0400     0.0050     4.1520 hn         1 0R9       0.299700
     42 H10          6.2290     1.7890     9.1310 ha         1 0R9       0.155000
     43 H11          9.7320    -0.1080    10.7430 h4         1 0R9       0.051100
     44 H12          7.9120    -1.7600     7.3950 h4         1 0R9      -0.003900
     45 H14          7.5980    -1.5550     3.8150 h4         1 0R9       0.179000
     46 H15         10.1450    -0.9310     3.6220 ha         1 0R9       0.163000
@<TRIPOS>BOND
     1     1     2 1
     2     2     3 1
     3     3     4 1
     4     5     4 2
     5     4     6 1
     6     6    14 1
     7     6     7 2
     8    14    13 1
     9     7     8 1
    10    13    12 ar
    11    13     8 ar
    12    12    11 ar
    13     8     9 ar
    14    25    24 1
    15    25    26 2
    16    11    10 ar
    17     9    24 1
    18     9    10 ar
    19    24    28 1
    20    10    15 1
    21    26    27 1
    22    20    15 ar
    23    20    19 ar
    24    15    16 ar
    25    28    27 2
    26    27    29 1
    27    19    18 ar
    28    16    17 ar
    29    18    17 ar
    30    30    29 1
    31    29    31 1
    32    29    32 1
    33    17    21 1
    34    21    22 1
    35    21    23 1
    36     1    33 1
    37     1    34 1
    38     1    35 1
    39     2    36 1
    40     2    37 1
    41     3    38 1
    42     7    39 1
    43    11    40 1
    44    14    41 1
    45    16    42 1
    46    18    43 1
    47    20    44 1
    48    25    45 1
    49    26    46 1
@<TRIPOS>SUBSTRUCTURE
     1 0R9         1 TEMP              0 ****  ****    0 ROOT
