@<TRIPOS>MOLECULE
0R9
   47    50     1     0     0
SMALL
bcc


@<TRIPOS>ATOM
      1 C1           0.6430    -0.2370    -0.6800 c3         1 0R9      -0.135100
      2 C2           1.5520     0.7860    -0.0350 c3         1 0R9       0.107800
      3 N3           1.7990     0.5070     1.4090 ny         1 0R9      -0.678800
      4 C4           2.7160     1.5390     2.0710 c          1 0R9       0.593300
      5 O5           3.0080     2.5100     1.3830 o          1 0R9      -0.450100
      6 C6           3.1310     1.2120     3.4020 cc         1 0R9      -0.319300
      7 C7           4.2350     1.8090     4.0430 cd         1 0R9       0.113800
      8 C8           4.4020     1.1530     5.3040 ca         1 0R9      -0.263100
      9 C9           5.3050     1.3000     6.3950 ca         1 0R9       0.156800
     10 C10          5.0760     0.4790     7.5210 cp         1 0R9      -0.125300
     11 C11          4.0160    -0.4740     7.4740 ca         1 0R9       0.489200
     12 N12          3.1590    -0.6670     6.4640 nb         1 0R9      -0.679000
     13 C13          3.3540     0.1470     5.3940 ca         1 0R9       0.475800
     14 N14          2.6110     0.1230     4.1770 na         1 0R9      -0.266100
     15 C15          5.8240     0.5530     8.7640 cp         1 0R9      -0.266300
     16 C16          5.8940     1.7400     9.5130 ca         1 0R9      -0.060000
     17 C17          6.5870     1.7400    10.7220 ca         1 0R9      -0.236900
     18 C18          7.1760     0.5340    11.1560 ca         1 0R9       0.436200
     19 N19          7.1140    -0.6190    10.4590 nb         1 0R9      -0.688000
     20 C20          6.4490    -0.6020     9.2910 ca         1 0R9       0.384200
     21 C21          6.7120     3.0230    11.5440 c          1 0R9       0.916200
     22 O22          7.3350     2.9460    12.6330 o          1 0R9      -0.802300
     23 O23          6.1880     4.0590    11.0540 o          1 0R9      -0.802300
     24 N24          6.3690     2.2230     6.3120 na         1 0R9       0.142300
     25 C25          7.5770     2.1960     7.0570 cc         1 0R9      -0.071300
     26 C26          8.3310     3.2920     6.6450 cd         1 0R9      -0.233300
     27 C27          7.5110     3.9420     5.6390 cd         1 0R9       0.254600
     28 N28          6.3430     3.2770     5.4620 nc         1 0R9      -0.494800
     29 C29          7.8740     5.1890     4.8580 c3         1 0R9       0.629600
     30 F30          9.1070     5.6990     5.1710 f          1 0R9      -0.226633
     31 F31          7.9170     4.9940     3.4980 f          1 0R9      -0.226633
     32 F32          7.0040     6.2350     5.0240 f          1 0R9      -0.226633
     33 H1           1.0790    -1.2640    -0.6390 hc         1 0R9       0.074033
     34 H2          -0.3680    -0.2520    -0.2030 hc         1 0R9       0.074033
     35 H3           0.5160     0.0450    -1.7570 hc         1 0R9       0.074033
     36 H4           2.5560     0.8080    -0.5520 hx         1 0R9       0.113700
     37 H5           1.1050     1.8200    -0.1120 hx         1 0R9       0.113700
     38 H6           0.9040     0.4930     1.9070 hn         1 0R9       0.452300
     39 H7           4.8440     2.6140     3.6180 ha         1 0R9       0.210000
     40 H8           3.8540    -1.1250     8.3610 h4         1 0R9       0.063100
     41 H9           1.6210     0.0480     4.2720 hn         1 0R9       0.270700
     42 H10          5.4160     2.6760     9.1780 ha         1 0R9       0.170000
     43 H11          7.7220     0.5190    12.1210 h4         1 0R9       0.060100
     44 H12          6.4150    -1.5580     8.7410 h4         1 0R9       0.000100
     45 H14          7.7850     1.4250     7.8060 h4         1 0R9       0.223000
     46 H15          9.3030     3.6220     6.9990 ha         1 0R9       0.201000
     47 H32          2.2320    -0.4180     1.5090 hn         1 0R9       0.452300
@<TRIPOS>BOND
     1     1     2 1   
     2     1    33 1   
     3     1    34 1   
     4     1    35 1   
     5     2     3 1   
     6     2    36 1   
     7     2    37 1   
     8     3     4 1   
     9     3    38 1   
    10     3    47 1   
    11     4     5 2   
    12     4     6 1   
    13     6     7 2   
    14     6    14 1   
    15     7     8 1   
    16     7    39 1   
    17     8     9 ar  
    18     8    13 ar  
    19     9    10 ar  
    20     9    24 1   
    21    10    11 ar  
    22    10    15 1   
    23    11    12 ar  
    24    11    40 1   
    25    12    13 ar  
    26    13    14 1   
    27    14    41 1   
    28    15    16 ar  
    29    15    20 ar  
    30    16    17 ar  
    31    16    42 1   
    32    17    18 ar  
    33    17    21 1   
    34    18    19 ar  
    35    18    43 1   
    36    19    20 ar  
    37    20    44 1   
    38    21    22 1   
    39    21    23 1   
    40    24    25 1   
    41    24    28 1   
    42    25    26 2   
    43    25    45 1   
    44    26    27 1   
    45    26    46 1   
    46    27    28 2   
    47    27    29 1   
    48    29    30 1   
    49    29    31 1   
    50    29    32 1   
@<TRIPOS>SUBSTRUCTURE
     1 0R9         1 TEMP              0 ****  ****    0 ROOT
