@<TRIPOS>MOLECULE
0RA
   33    35     1     0     0
SMALL
bcc


@<TRIPOS>ATOM
      1 C1           0.0000     0.0000     0.0000 ca         1 0RA      -0.108000
      2 C2           1.3830     0.0000     0.0000 ca         1 0RA      -0.100000
      3 C3           2.0800     0.0000     1.1950 ca         1 0RA      -0.050300
      4 C4           1.3980    -0.0000     2.3950 ca         1 0RA      -0.099000
      5 C5           0.0050    -0.0010     2.4010 cp         1 0RA      -0.038000
      6 C6          -0.6930     0.0060     1.1950 ca         1 0RA      -0.130000
      7 C7          -0.7340    -0.0020     3.6880 cp         1 0RA      -0.152300
      8 C8          -2.1280    -0.0020     3.7010 ca         1 0RA      -0.029000
      9 C9          -2.7700    -0.0030     4.9390 ca         1 0RA      -0.217100
     10 C10         -4.1720    -0.0040     5.3640 cc         1 0RA      -0.158200
     11 C11         -4.1730    -0.0060     6.7050 cd         1 0RA      -0.276100
     12 N1          -2.8870    -0.0060     7.1730 na         1 0RA       0.251900
     13 C12         -2.0020    -0.0050     6.1210 ca         1 0RA       0.222800
     14 N2          -0.6770    -0.0050     6.0530 nb         1 0RA      -0.582000
     15 C13         -0.0420    -0.0090     4.9020 ca         1 0RA       0.420200
     16 C14          3.5870     0.0000     1.1870 c3         1 0RA       0.029900
     17 C15          4.0970     1.4420     1.1840 c3         1 0RA      -0.129400
     18 C16          5.6040     1.4430     1.1760 c          1 0RA       0.979600
     19 O1           6.2080     0.3960     1.1730 o          1 0RA      -0.902800
     20 O2           6.2750     2.6060     1.1730 o          1 0RA      -0.902800
     21 H1          -0.5410    -0.0040    -0.9390 ha         1 0RA       0.091000
     22 H2           1.9230    -0.0050    -0.9390 ha         1 0RA       0.109000
     23 H3           1.9440    -0.0730     3.3280 ha         1 0RA       0.117000
     24 H4          -1.7730     0.0830     1.1940 ha         1 0RA       0.100000
     25 H5          -2.6780    -0.2640     2.8060 ha         1 0RA       0.115000
     26 H6          -5.0420    -0.0030     4.7180 ha         1 0RA       0.125000
     27 H7          -5.0600    -0.0070     7.3260 h4         1 0RA       0.134000
     28 H8          -2.6280    -0.0070     8.1400 hn         1 0RA       0.113700
     29 H9           1.0420    -0.0180     4.8940 h4         1 0RA      -0.001900
     30 H10          3.9440    -0.5100     0.3010 hc         1 0RA       0.027700
     31 H11          3.9540    -0.5100     2.0700 hc         1 0RA       0.027700
     32 H12          3.7400     1.9530     2.0710 hc         1 0RA       0.008200
     33 H13          3.7310     1.9530     0.3020 hc         1 0RA       0.008200
@<TRIPOS>BOND
     1     1     2 ar  
     2     1     6 ar  
     3     1    21 1   
     4     2     3 ar  
     5     2    22 1   
     6     3     4 ar  
     7     3    16 1   
     8     4     5 ar  
     9     4    23 1   
    10     5     6 ar  
    11     5     7 1   
    12     6    24 1   
    13     7     8 ar  
    14     7    15 ar  
    15     8     9 ar  
    16     8    25 1   
    17     9    10 1   
    18     9    13 ar  
    19    10    11 2   
    20    10    26 1   
    21    11    12 1   
    22    11    27 1   
    23    12    13 1   
    24    12    28 1   
    25    13    14 ar  
    26    14    15 ar  
    27    15    29 1   
    28    16    17 1   
    29    16    30 1   
    30    16    31 1   
    31    17    18 1   
    32    17    32 1   
    33    17    33 1   
    34    18    19 1   
    35    18    20 1   
@<TRIPOS>SUBSTRUCTURE
     1 0RA         1 TEMP              0 ****  ****    0 ROOT
