@<TRIPOS>MOLECULE
molecule
   33    35     1     0     0
SMALL
bcc


@<TRIPOS>ATOM
      1 C1           0.0000     0.0000     0.0000 ca         1 0RA      -0.133000
      2 C2           1.3830     0.0000     0.0000 ca         1 0RA      -0.127000
      3 C3           2.0800     0.0000     1.1950 ca         1 0RA      -0.049300
      4 C4           1.3980    -0.0000     2.3950 ca         1 0RA      -0.122000
      5 C5           0.0050    -0.0010     2.4010 cp         1 0RA      -0.041000
      6 C6          -0.6930     0.0060     1.1950 ca         1 0RA      -0.146000
      7 C7          -0.7340    -0.0020     3.6880 cp         1 0RA      -0.168300
      8 C8          -2.1280    -0.0020     3.7010 ca         1 0RA      -0.054000
      9 C9          -2.7700    -0.0030     4.9390 ca         1 0RA      -0.220100
     10 C10         -4.1720    -0.0040     5.3640 cc         1 0RA      -0.195200
     11 C11         -4.1730    -0.0060     6.7050 cd         1 0RA      -0.106100
     12 N1          -2.8870    -0.0060     7.1730 na         1 0RA      -0.285100
     13 C12         -2.0020    -0.0050     6.1210 ca         1 0RA       0.458800
     14 N2          -0.6770    -0.0050     6.0530 nb         1 0RA      -0.717000
     15 C13         -0.0420    -0.0090     4.9020 ca         1 0RA       0.459200
     16 C14          3.5870     0.0000     1.1870 c3         1 0RA      -0.029100
     17 C15          4.0970     1.4420     1.1840 c3         1 0RA      -0.178400
     18 C16          5.6040     1.4430     1.1760 c          1 0RA       0.890600
     19 O1           6.2080     0.3960     1.1730 o          1 0RA      -0.853300
     20 O2           6.2750     2.6060     1.1730 o          1 0RA      -0.853300
     21 H1          -0.5410    -0.0050    -0.9390 ha         1 0RA       0.116000
     22 H2           1.9230    -0.0050    -0.9390 ha         1 0RA       0.134000
     23 H3           1.9440    -0.0730     3.3280 ha         1 0RA       0.135000
     24 H4          -1.7740    -0.0510     1.1940 ha         1 0RA       0.116000
     25 H5          -2.6780     0.2590     2.8060 ha         1 0RA       0.141000
     26 H6          -5.0420    -0.0030     4.7180 ha         1 0RA       0.149000
     27 H7          -5.0600    -0.0070     7.3260 h4         1 0RA       0.160000
     28 H8          -2.6280    -0.0070     8.1400 hn         1 0RA       0.298700
     29 H9           1.0420    -0.0180     4.8940 h4         1 0RA       0.040100
     30 H10          3.9440    -0.5100     0.3010 hc         1 0RA       0.056700
     31 H11          3.9540    -0.5100     2.0700 hc         1 0RA       0.056700
     32 H12          3.7310     1.9530     0.3020 hc         1 0RA       0.032700
     33 H13          3.7400     1.9530     2.0710 hc         1 0RA       0.032700
@<TRIPOS>BOND
     1    11    12 1
     2    11    10 2
     3    12    13 1
     4    10     9 1
     5    13     9 ar
     6    13    14 ar
     7     9     8 ar
     8    14    15 ar
     9     8     7 ar
    10    15     7 ar
    11     7     5 1
    12     6     5 ar
    13     6     1 ar
    14     5     4 ar
    15     1     2 ar
    16     4     3 ar
    17     2     3 ar
    18     3    16 1
    19    16    17 1
    20    17    18 1
    21    18    19 1
    22    18    20 1
    23     1    21 1
    24     2    22 1
    25     4    23 1
    26     6    24 1
    27     8    25 1
    28    10    26 1
    29    11    27 1
    30    12    28 1
    31    15    29 1
    32    16    30 1
    33    16    31 1
    34    17    32 1
    35    17    33 1
@<TRIPOS>SUBSTRUCTURE
     1 0RA         1 TEMP              0 ****  ****    0 ROOT
