@<TRIPOS>MOLECULE
0RA
   33    35     1     0     0
SMALL
bcc


@<TRIPOS>ATOM
      1 C1          -0.0700     0.0690    -0.0880 ca         1 0RA      -0.138000
      2 C2           1.3210     0.1370    -0.0920 ca         1 0RA      -0.127000
      3 C3           2.0340     0.1410     1.1150 ca         1 0RA      -0.040300
      4 C4           1.3280     0.0730     2.3210 ca         1 0RA      -0.125000
      5 C5          -0.0720     0.0050     2.3310 cp         1 0RA      -0.049000
      6 C6          -0.7690     0.0050     1.1150 ca         1 0RA      -0.145000
      7 C7          -0.8010    -0.0650     3.5930 cp         1 0RA      -0.155300
      8 C8          -1.9970     0.6250     3.7790 ca         1 0RA      -0.051000
      9 C9          -2.6440     0.5100     5.0110 ca         1 0RA      -0.200100
     10 C10         -3.8510     1.0420     5.5910 cc         1 0RA      -0.180200
     11 C11         -3.9400     0.5420     6.8870 cd         1 0RA      -0.118100
     12 N1          -2.8530    -0.2890     7.1670 na         1 0RA      -0.293100
     13 C12         -2.0290    -0.3270     6.0310 ca         1 0RA       0.413800
     14 N2          -0.8560    -1.0100     5.8620 nb         1 0RA      -0.676000
     15 C13         -0.2860    -0.8590     4.6650 ca         1 0RA       0.428200
     16 C14          3.5200     0.2270     1.1080 c3         1 0RA      -0.038100
     17 C15          4.1740    -0.9970     0.5070 c3         1 0RA      -0.193400
     18 C16          5.7090    -0.9000     0.6080 c          1 0RA       0.908600
     19 O1           6.2140    -0.4750     1.6870 o          1 0RA      -0.847800
     20 O2           6.3840    -1.2670    -0.3950 o          1 0RA      -0.847800
     21 H1          -0.6210     0.0620    -1.0400 ha         1 0RA       0.117000
     22 H2           1.8750     0.1790    -1.0420 ha         1 0RA       0.141000
     23 H3           1.8840     0.0800     3.2720 ha         1 0RA       0.138000
     24 H4          -1.8660    -0.0560     1.1130 ha         1 0RA       0.117000
     25 H5          -2.4200     1.2500     2.9790 ha         1 0RA       0.141000
     26 H6          -4.5530     1.7090     5.1010 ha         1 0RA       0.152000
     27 H7          -4.7070     0.7140     7.6440 h4         1 0RA       0.158000
     28 H8          -2.6700    -0.7470     8.0190 hn         1 0RA       0.303700
     29 H9           0.6640    -1.4110     4.5210 h4         1 0RA       0.037100
     30 H10          3.9190     0.3620     2.1510 hc         1 0RA       0.059700
     31 H11          3.8290     1.1320     0.5180 hc         1 0RA       0.059700
     32 H12          3.8780    -1.1120    -0.5650 hc         1 0RA       0.024700
     33 H13          3.8510    -1.9160     1.0560 hc         1 0RA       0.024700
@<TRIPOS>BOND
     1     1     2 ar  
     2     1     6 ar  
     3     1    21 1   
     4     2     3 ar  
     5     2    22 1   
     6     3     4 ar  
     7     3    16 1   
     8     4     5 ar  
     9     4    23 1   
    10     5     6 ar  
    11     5     7 1   
    12     6    24 1   
    13     7     8 ar  
    14     7    15 ar  
    15     8     9 ar  
    16     8    25 1   
    17     9    10 1   
    18     9    13 ar  
    19    10    11 2   
    20    10    26 1   
    21    11    12 1   
    22    11    27 1   
    23    12    13 1   
    24    12    28 1   
    25    13    14 ar  
    26    14    15 ar  
    27    15    29 1   
    28    16    17 1   
    29    16    30 1   
    30    16    31 1   
    31    17    18 1   
    32    17    32 1   
    33    17    33 1   
    34    18    19 1   
    35    18    20 1   
@<TRIPOS>SUBSTRUCTURE
     1 0RA         1 TEMP              0 ****  ****    0 ROOT
