@<TRIPOS>MOLECULE
0RB
   32    34     1     0     0
SMALL
bcc


@<TRIPOS>ATOM
      1 C1          -0.1170     1.0790     1.0760 cc         1 0RB       0.751100
      2 C2           1.0000    -0.9990     1.3630 c          1 0RB       0.605000
      3 C3           0.9820    -0.7350     2.8480 ca         1 0RB       0.275500
      4 C4           0.4740     0.5410     3.3310 ca         1 0RB       0.557900
      5 C5           0.8570    -0.1660     5.4980 ca         1 0RB       0.250500
      6 C6           1.3660    -1.4080     5.0200 ca         1 0RB       0.377900
      7 O2           0.9300    -0.8940     7.7890 o          1 0RB      -0.368100
      8 C7           0.7710     0.0010     6.9730 c          1 0RB       0.451600
      9 N5           1.4220    -1.6770     3.6990 nb         1 0RB      -0.509000
     10 O1           1.5410    -1.9600     0.8370 o          1 0RB      -0.325100
     11 N2           0.3140    -0.0340     0.5530 nd         1 0RB      -0.611100
     12 N4           0.4250     0.8140     4.6660 nb         1 0RB      -0.664000
     13 N3           0.0250     1.5060     2.4090 na         1 0RB      -0.826900
     14 N1          -0.8250     2.0250     0.1410 nz         1 0RB      -0.811600
     15 N6           0.4810     1.3660     7.5430 ny         1 0RB      -0.670800
     16 C8          -0.9960     1.6320     7.7250 c3         1 0RB       0.209100
     17 C9          -1.6420     1.9060     6.4320 cc         1 0RB      -0.278900
     18 N9          -2.4460     1.0080     5.6970 na         1 0RB      -0.012600
     19 N8          -2.7170     1.5280     4.5020 nc         1 0RB      -0.123800
     20 N7          -2.1530     2.6700     4.3720 nd         1 0RB      -0.401000
     21 C10         -1.4730     3.0010     5.5530 cd         1 0RB       0.342200
     22 H1           1.7290    -2.2050     5.7060 h4         1 0RB       0.106100
     23 H2          -0.2990     2.3970     2.7280 hn         1 0RB       0.500800
     24 H3          -1.7720     2.2240     0.4940 hn         1 0RB       0.499467
     25 H4          -0.8990     1.5850    -0.7960 hn         1 0RB       0.499467
     26 H5           0.9280     1.4250     8.4730 hn         1 0RB       0.478800
     27 H6          -1.0880     2.5420     8.3950 hx         1 0RB       0.140200
     28 H7          -1.4440     0.7440     8.2630 hx         1 0RB       0.140200
     29 H8          -2.9340     0.2070     6.0470 hn         1 0RB       0.358700
     30 H9          -0.9670     3.9580     5.6920 h4         1 0RB       0.081100
     31 H13         -0.2890     2.8990     0.0550 hn         1 0RB       0.499467
     32 H62          0.8830     2.0900     6.9350 hn         1 0RB       0.478800
@<TRIPOS>BOND
     1     1    11 2   
     2     1    13 1   
     3     1    14 1   
     4     2     3 1   
     5     2    10 2   
     6     2    11 1   
     7     3     4 ar  
     8     3     9 ar  
     9     4    12 ar  
    10     4    13 1   
    11     5     6 ar  
    12     5     8 1   
    13     5    12 ar  
    14     6     9 ar  
    15     6    22 1   
    16     7     8 2   
    17     8    15 1   
    18    13    23 1   
    19    14    24 1   
    20    14    25 1   
    21    14    31 1   
    22    15    16 1   
    23    15    26 1   
    24    15    32 1   
    25    16    17 1   
    26    16    27 1   
    27    16    28 1   
    28    17    18 1   
    29    17    21 2   
    30    18    19 1   
    31    18    29 1   
    32    19    20 2   
    33    20    21 1   
    34    21    30 1   
@<TRIPOS>SUBSTRUCTURE
     1 0RB         1 TEMP              0 ****  ****    0 ROOT
