@<TRIPOS>MOLECULE
0RB
   31    33     1     0     0
SMALL
bcc


@<TRIPOS>ATOM
      1 C1           0.0000     0.0000     0.0000 cc         1 0RB       0.241100
      2 C2           2.0200     0.0000     1.1410 c          1 0RB       0.573000
      3 C3           1.2810    -0.0000     2.4220 ca         1 0RB       0.190500
      4 C4          -0.1260     0.0050     2.3730 ca         1 0RB       0.314900
      5 C5          -0.1880     0.0020     4.6640 ca         1 0RB       0.276500
      6 C6           1.2090     0.0000     4.7070 ca         1 0RB       0.358900
      7 O2          -0.3880    -0.0030     6.9960 o          1 0RB      -0.603100
      8 C7          -0.9660     0.0010     5.9280 c          1 0RB       0.466600
      9 N5           1.9090     0.0010     3.5890 nb         1 0RB      -0.426000
     10 O1           3.2400     0.0000     1.1220 o          1 0RB      -0.423100
     11 N2           1.3170     0.0000     0.0000 nd         1 0RB      -0.502100
     12 N4          -0.8240     0.0060     3.4970 nb         1 0RB      -0.551000
     13 N3          -0.7420     0.0050     1.1380 na         1 0RB      -0.279900
     14 N1          -0.6510     0.0000    -1.2020 nz         1 0RB       0.185400
     15 N6          -2.3120     0.0070     5.8900 ns         1 0RB      -0.169900
     16 C8          -3.0800     0.0080     7.1380 c3         1 0RB       0.164300
     17 C9          -4.5540     0.0140     6.8210 cc         1 0RB      -0.512900
     18 N9          -5.3320    -1.0600     6.5560 na         1 0RB       0.566400
     19 N8          -6.5310    -0.6460     6.3370 nc         1 0RB      -0.360800
     20 N7          -6.5830     0.6350     6.4420 nd         1 0RB      -0.304000
     21 C10         -5.3650     1.0940     6.7510 cd         1 0RB       0.331200
     22 H1           1.7190    -0.0010     5.6630 h4         1 0RB       0.041100
     23 H2          -1.7410     0.0050     1.0800 hn         1 0RB       0.296800
     24 H3          -1.2200     0.8200    -1.2730 hn         1 0RB       0.230133
     25 H4           0.0200    -0.0060    -1.9440 hn         1 0RB       0.230133
     26 H5          -2.7880     0.0310     5.0090 hn         1 0RB       0.184500
     27 H6          -2.8380    -0.8790     7.7110 h1         1 0RB       0.041200
     28 H7          -2.8310     0.8900     7.7140 h1         1 0RB       0.041200
     29 H8          -5.0290    -2.0140     6.5340 hn         1 0RB       0.149700
     30 H9          -5.0820     2.1280     6.9070 h4         1 0RB       0.020100
     31 H13         -1.2410    -0.8060    -1.2610 hn         1 0RB       0.230133
@<TRIPOS>BOND
     1     1    11 2   
     2     1    13 1   
     3     1    14 1   
     4     2     3 1   
     5     2    10 2   
     6     2    11 1   
     7     3     4 ar  
     8     3     9 ar  
     9     4    12 ar  
    10     4    13 1   
    11     5     6 ar  
    12     5     8 1   
    13     5    12 ar  
    14     6     9 ar  
    15     6    22 1   
    16     7     8 2   
    17     8    15 1   
    18    13    23 1   
    19    14    24 1   
    20    14    25 1   
    21    14    31 1   
    22    15    16 1   
    23    15    26 1   
    24    16    17 1   
    25    16    27 1   
    26    16    28 1   
    27    17    18 1   
    28    17    21 2   
    29    18    19 1   
    30    18    29 1   
    31    19    20 2   
    32    20    21 1   
    33    21    30 1   
@<TRIPOS>SUBSTRUCTURE
     1 0RB         1 TEMP              0 ****  ****    0 ROOT
