@<TRIPOS>MOLECULE
0RC
   47    48     1     0     0
SMALL
bcc


@<TRIPOS>ATOM
      1 O3B          0.2590     2.2920    -3.3420 o          1 0RC      -0.978300
      2 PB           0.8160     1.3590    -2.3470 p5         1 0RC       1.782300
      3 O2B         -0.3440     0.8400    -1.3730 oh         1 0RC      -0.813400
      4 C1B          1.5770     0.0580    -2.9660 c3         1 0RC      -0.445600
      5 C14          1.8470    -0.9360    -1.8440 c3         1 0RC       0.166800
      6 N15          2.4890    -2.1520    -2.2750 n8         1 0RC      -0.909800
      7 O3A          1.7400     2.0980    -1.3210 os         1 0RC      -0.834800
      8 PA           2.6210     3.0720    -0.2470 p5         1 0RC       1.566800
      9 O1A          3.3460     2.1440     0.6170 o          1 0RC      -0.821500
     10 O2A          1.6990     4.1830     0.0160 o          1 0RC      -0.821500
     11 O5'          3.6870     3.7560    -1.3050 os         1 0RC      -0.614200
     12 C5'          4.9630     3.2080    -1.4120 c3         1 0RC       0.165400
     13 C4'          5.9960     4.2830    -1.7630 c3         1 0RC       0.088100
     14 C3'          6.0330     5.4890    -0.8080 c3         1 0RC       0.091100
     15 O3'          7.3000     5.6770    -0.2180 oh         1 0RC      -0.586800
     16 C2'          5.6570     6.7200    -1.6720 c3         1 0RC       0.080100
     17 O2'          6.7790     7.5530    -1.8960 oh         1 0RC      -0.592800
     18 O4'          5.7700     4.7900    -3.0890 os         1 0RC      -0.401600
     19 C1'          5.2850     6.1330    -3.0650 c3         1 0RC       0.292500
     20 N1           3.8490     6.1640    -3.3740 n          1 0RC      -0.356000
     21 C6           2.8910     6.0070    -2.4120 cc         1 0RC       0.150600
     22 C5           1.5810     5.6680    -2.7170 cd         1 0RC      -0.409600
     23 C4           1.3260     5.3310    -4.0830 cd         1 0RC       0.628500
     24 N4           0.0450     4.6550    -4.3870 nz         1 0RC      -0.794600
     25 N3           2.1760     5.5200    -5.0830 nc         1 0RC      -0.672100
     26 C2           3.4730     6.0020    -4.7640 c          1 0RC       0.832900
     27 O2           4.2820     6.3030    -5.6550 o          1 0RC      -0.564500
     28 H1B1         2.5450     0.3310    -3.4630 hc         1 0RC       0.116700
     29 H1B2         0.9780    -0.4510    -3.7680 hc         1 0RC       0.116700
     30 H141         0.8500    -1.2140    -1.3900 h1         1 0RC       0.052700
     31 H142         2.4330    -0.3790    -1.0510 h1         1 0RC       0.052700
     32 H151         2.6260    -2.7650    -1.4950 hn         1 0RC       0.354800
     33 H152         3.3730    -1.9590    -2.7010 hn         1 0RC       0.354800
     34 H5'1         4.9790     2.4510    -2.2490 h1         1 0RC       0.056200
     35 H5'2         5.2500     2.7110    -0.4420 h1         1 0RC       0.056200
     36 H4'          7.0080     3.7880    -1.8180 h1         1 0RC       0.081700
     37 H3'          5.3270     5.3590     0.0550 h1         1 0RC       0.113700
     38 HO3'         7.9580     5.6870    -0.9280 ho         1 0RC       0.414000
     39 H2'          4.8390     7.3240    -1.2000 h1         1 0RC       0.065700
     40 HO2'         7.1030     7.8220    -1.0240 ho         1 0RC       0.428000
     41 H1'          5.8240     6.6670    -3.9070 h2         1 0RC       0.146700
     42 H6           3.1830     6.1380    -1.3480 h4         1 0RC       0.207000
     43 H5           0.8530     5.5450    -1.8990 ha         1 0RC       0.217000
     44 HN41        -0.5490     5.2290    -4.9810 hn         1 0RC       0.484133
     45 HN42         0.2400     3.7370    -4.8380 hn         1 0RC       0.484133
     46 H153        -0.4300     1.2550    -0.5200 ho         1 0RC       0.484000
     47 H43         -0.4210     4.4190    -3.4950 hn         1 0RC       0.484133
@<TRIPOS>BOND
     1     1     2 2   
     2     2     3 1   
     3     2     4 1   
     4     2     7 1   
     5     3    46 1   
     6     4     5 1   
     7     4    28 1   
     8     4    29 1   
     9     5     6 1   
    10     5    30 1   
    11     5    31 1   
    12     6    32 1   
    13     6    33 1   
    14     7     8 1   
    15     8     9 1   
    16     8    10 1   
    17     8    11 1   
    18    11    12 1   
    19    12    13 1   
    20    12    34 1   
    21    12    35 1   
    22    13    14 1   
    23    13    18 1   
    24    13    36 1   
    25    14    15 1   
    26    14    16 1   
    27    14    37 1   
    28    15    38 1   
    29    16    17 1   
    30    16    19 1   
    31    16    39 1   
    32    17    40 1   
    33    18    19 1   
    34    19    20 1   
    35    19    41 1   
    36    20    21 1   
    37    20    26 1   
    38    21    22 2   
    39    21    42 1   
    40    22    23 1   
    41    22    43 1   
    42    23    24 1   
    43    23    25 2   
    44    24    44 1   
    45    24    45 1   
    46    24    47 1   
    47    25    26 1   
    48    26    27 2   
@<TRIPOS>SUBSTRUCTURE
     1 0RC         1 TEMP              0 ****  ****    0 ROOT
