@<TRIPOS>MOLECULE
0RD
   54    57     1     0     0
SMALL
bcc


@<TRIPOS>ATOM
      1 Cl1          1.1680    -2.8400    -0.0200 cl         1 0RD      -0.063400
      2 C23          2.4020    -1.6770    -0.0130 ca         1 0RD      -0.041600
      3 C11          3.0840    -1.3920     1.1690 ca         1 0RD       0.010000
      4 C30          2.7360    -1.0090    -1.1980 ca         1 0RD      -0.030000
      5 C22          3.7490    -0.0590    -1.1940 ca         1 0RD      -0.225000
      6 C18          4.4320     0.2200    -0.0000 ca         1 0RD       0.242100
      7 O32          5.4680     1.1230     0.0800 os         1 0RD      -0.332900
      8 C34          5.7180     1.9240    -1.0710 c3         1 0RD       0.117700
      9 C3           4.1060    -0.4310     1.2070 ca         1 0RD      -0.390500
     10 S1           4.8360    -0.0980     2.7040 sy         1 0RD       1.525200
     11 O12          4.1970    -0.9060     3.6670 o          1 0RD      -0.646300
     12 O13          4.8050     1.2870     2.9570 o          1 0RD      -0.646300
     13 N2           6.3830    -0.5680     2.5030 nh         1 0RD      -0.678900
     14 C9           7.4930     0.3780     2.3650 c3         1 0RD       0.225800
     15 C17          8.7870    -0.4440     2.1280 c3         1 0RD      -0.034100
     16 C5           8.3090    -1.8590     2.1460 ca         1 0RD      -0.119300
     17 C4           6.8990    -1.8780     2.3750 ca         1 0RD       0.163600
     18 C10          9.0130    -3.0400     1.9760 ca         1 0RD      -0.046300
     19 C33         10.4760    -3.0490     1.7490 c3         1 0RD      -0.051800
     20 C16          8.3030    -4.2530     2.0300 ca         1 0RD      -0.110000
     21 C8           6.9300    -4.2710     2.2670 ca         1 0RD      -0.099600
     22 C7           6.2040    -3.0850     2.4490 ca         1 0RD      -0.149000
     23 C6           6.2430    -5.6090     2.2720 c          1 0RD       0.664700
     24 O20          6.5430    -6.4520     1.4020 o          1 0RD      -0.602100
     25 N14          5.3130    -5.8050     3.2660 ns         1 0RD      -0.448100
     26 C24          4.5670    -6.9780     3.5280 ca         1 0RD       0.013600
     27 C28          4.4800    -8.0540     2.6250 ca         1 0RD      -0.184500
     28 C25          3.7060    -9.1680     2.9460 ca         1 0RD      -0.091500
     29 C29          3.8590    -7.0530     4.7530 ca         1 0RD      -0.184500
     30 C26          3.0930    -8.1740     5.0470 ca         1 0RD      -0.091500
     31 C19          3.0060    -9.2430     4.1500 ca         1 0RD      -0.134600
     32 C15          2.1620   -10.4630     4.4870 c          1 0RD       0.909200
     33 O21          1.5600   -10.4760     5.5980 o          1 0RD      -0.831800
     34 O27          2.1060   -11.3980     3.6390 o          1 0RD      -0.831800
     35 H1           2.8160    -1.9280     2.1020 ha         1 0RD       0.187000
     36 H2           2.2000    -1.2390    -2.1330 ha         1 0RD       0.151000
     37 H3           4.0110     0.4580    -2.1270 ha         1 0RD       0.145000
     38 H4           6.5230     2.6210    -0.7250 h1         1 0RD       0.050700
     39 H5           4.8020     2.4920    -1.3640 h1         1 0RD       0.050700
     40 H6           6.0790     1.2890    -1.9150 h1         1 0RD       0.050700
     41 H7           7.2920     1.0670     1.4990 h1         1 0RD       0.058200
     42 H8           7.5750     0.9920     3.3030 h1         1 0RD       0.058200
     43 H9           9.2530    -0.1800     1.1470 hc         1 0RD       0.057700
     44 H10          9.5320    -0.2520     2.9380 hc         1 0RD       0.057700
     45 H11         11.0100    -3.2680     2.7080 hc         1 0RD       0.044700
     46 H12         10.7550    -3.8360     1.0060 hc         1 0RD       0.044700
     47 H13         10.8280    -2.0580     1.3690 hc         1 0RD       0.044700
     48 H14          8.8340    -5.2060     1.8690 ha         1 0RD       0.157000
     49 H15          5.1190    -3.1070     2.6400 ha         1 0RD       0.158000
     50 H16          5.2040    -5.0770     3.9370 hn         1 0RD       0.313500
     51 H17          5.0220    -8.0280     1.6680 ha         1 0RD       0.127000
     52 H18          3.6320   -10.0170     2.2450 ha         1 0RD       0.154500
     53 H19          3.9070    -6.2270     5.4770 ha         1 0RD       0.127000
     54 H20          2.5360    -8.2440     5.9960 ha         1 0RD       0.154500
@<TRIPOS>BOND
     1     1     2 1   
     2     2     3 ar  
     3     2     4 ar  
     4     3     9 ar  
     5     3    35 1   
     6     4     5 ar  
     7     4    36 1   
     8     5     6 ar  
     9     5    37 1   
    10     6     7 1   
    11     6     9 ar  
    12     7     8 1   
    13     8    38 1   
    14     8    39 1   
    15     8    40 1   
    16     9    10 1   
    17    10    11 2   
    18    10    12 2   
    19    10    13 1   
    20    13    14 1   
    21    13    17 1   
    22    14    15 1   
    23    14    41 1   
    24    14    42 1   
    25    15    16 1   
    26    15    43 1   
    27    15    44 1   
    28    16    17 ar  
    29    16    18 ar  
    30    17    22 ar  
    31    18    19 1   
    32    18    20 ar  
    33    19    45 1   
    34    19    46 1   
    35    19    47 1   
    36    20    21 ar  
    37    20    48 1   
    38    21    22 ar  
    39    21    23 1   
    40    22    49 1   
    41    23    24 2   
    42    23    25 1   
    43    25    26 1   
    44    25    50 1   
    45    26    27 ar  
    46    26    29 ar  
    47    27    28 ar  
    48    27    51 1   
    49    28    31 ar  
    50    28    52 1   
    51    29    30 ar  
    52    29    53 1   
    53    30    31 ar  
    54    30    54 1   
    55    31    32 1   
    56    32    33 1   
    57    32    34 1   
@<TRIPOS>SUBSTRUCTURE
     1 0RD         1 TEMP              0 ****  ****    0 ROOT
