@<TRIPOS>MOLECULE
0RD
   54    57     1     0     0
SMALL
bcc


@<TRIPOS>ATOM
      1 Cl1          0.0000     0.0000     0.0000 cl         1 0RD      -0.030400
      2 C23          1.7360     0.0000     0.0000 ca         1 0RD      -0.115600
      3 C11          2.4270     0.0000     1.2000 ca         1 0RD       0.045000
      4 C30          2.4270    -0.0060    -1.1980 ca         1 0RD      -0.002000
      5 C22          3.8080    -0.0070    -1.1990 ca         1 0RD      -0.230000
      6 C18          4.5030    -0.0020     0.0010 ca         1 0RD       0.257100
      7 O32          5.8620    -0.0040     0.0020 os         1 0RD      -0.287900
      8 C34          6.5110    -0.0100    -1.2710 c3         1 0RD       0.233700
      9 C3           3.8080    -0.0000     1.2020 ca         1 0RD      -0.199500
     10 S1           4.6860    -0.0000     2.7300 sy         1 0RD       1.064200
     11 O12          5.6690     1.0210     2.6270 o          1 0RD      -0.572800
     12 O13          3.7050    -0.0340     3.7560 o          1 0RD      -0.572800
     13 N2           5.5100    -1.4340     2.8210 nh         1 0RD      -0.338900
     14 C9           4.9820    -2.6690     3.4050 c3         1 0RD       0.231800
     15 C17          6.1110    -3.7020     3.2530 c3         1 0RD       0.035900
     16 C5           7.2290    -2.9460     2.5710 ca         1 0RD      -0.149300
     17 C4           6.8070    -1.6430     2.3480 ca         1 0RD       0.081600
     18 C10          8.4910    -3.3570     2.1800 ca         1 0RD      -0.057300
     19 C33          8.9260    -4.7790     2.4270 c3         1 0RD       0.065200
     20 C16          9.3520    -2.4720     1.5640 ca         1 0RD      -0.121000
     21 C8           8.9460    -1.1560     1.3370 ca         1 0RD      -0.120600
     22 C7           7.6710    -0.7470     1.7210 ca         1 0RD      -0.084000
     23 C6           9.8620    -0.2010     0.6790 c          1 0RD       0.561700
     24 O20          9.5080     0.9450     0.4820 o          1 0RD      -0.631100
     25 N14         11.0920    -0.6020     0.2970 ns         1 0RD      -0.013100
     26 C24         11.9150     0.2630    -0.4210 ca         1 0RD      -0.142400
     27 C28         13.2930     0.2210    -0.2380 ca         1 0RD      -0.147000
     28 C25         14.1090     1.0740    -0.9460 ca         1 0RD      -0.060500
     29 C29         11.3560     1.1640    -1.3230 ca         1 0RD      -0.147000
     30 C26         12.1660     2.0200    -2.0340 ca         1 0RD      -0.060500
     31 C19         13.5510     1.9840    -1.8490 ca         1 0RD      -0.103600
     32 C15         14.4220     2.9010    -2.6080 c          1 0RD       0.974200
     33 O21         13.9350     3.6870    -3.3960 o          1 0RD      -0.885300
     34 O27         15.7570     2.8650    -2.4290 o          1 0RD      -0.885300
     35 H1           1.8840     0.0020     2.1370 ha         1 0RD       0.136000
     36 H2           1.8850    -0.0100    -2.1360 ha         1 0RD       0.109000
     37 H3           4.3490    -0.0120    -2.1380 ha         1 0RD       0.133000
     38 H4           6.3260    -0.9560    -1.7660 h1         1 0RD       0.010700
     39 H5           7.5770     0.1230    -1.1340 h1         1 0RD       0.010700
     40 H6           6.1220     0.7980    -1.8790 h1         1 0RD       0.010700
     41 H7           4.7720    -2.5130     4.4560 h1         1 0RD       0.016700
     42 H8           4.1140    -2.9940     2.8440 h1         1 0RD       0.016700
     43 H9           6.4370    -4.0330     4.2310 hc         1 0RD       0.023700
     44 H10          5.7790    -4.5150     2.6170 hc         1 0RD       0.023700
     45 H11          8.2450    -5.4570     1.9270 hc         1 0RD       0.004700
     46 H12          9.9270    -4.9220     2.0390 hc         1 0RD       0.004700
     47 H13          8.9180    -4.9790     3.4910 hc         1 0RD       0.004700
     48 H14         10.3430    -2.7950     1.2670 ha         1 0RD       0.111000
     49 H15          7.3550     0.2740     1.5450 ha         1 0RD       0.184000
     50 H16         11.4270    -1.5080     0.5610 hn         1 0RD       0.157500
     51 H17         13.7250    -0.4840     0.4620 ha         1 0RD       0.100000
     52 H18         15.1820     1.0430    -0.8010 ha         1 0RD       0.125500
     53 H19         10.2820     1.1910    -1.4660 ha         1 0RD       0.100000
     54 H20         11.7300     2.7220    -2.7350 ha         1 0RD       0.125500
@<TRIPOS>BOND
     1     1     2 1   
     2     2     3 ar  
     3     2     4 ar  
     4     3     9 ar  
     5     3    35 1   
     6     4     5 ar  
     7     4    36 1   
     8     5     6 ar  
     9     5    37 1   
    10     6     7 1   
    11     6     9 ar  
    12     7     8 1   
    13     8    38 1   
    14     8    39 1   
    15     8    40 1   
    16     9    10 1   
    17    10    11 2   
    18    10    12 2   
    19    10    13 1   
    20    13    14 1   
    21    13    17 1   
    22    14    15 1   
    23    14    41 1   
    24    14    42 1   
    25    15    16 1   
    26    15    43 1   
    27    15    44 1   
    28    16    17 ar  
    29    16    18 ar  
    30    17    22 ar  
    31    18    19 1   
    32    18    20 ar  
    33    19    45 1   
    34    19    46 1   
    35    19    47 1   
    36    20    21 ar  
    37    20    48 1   
    38    21    22 ar  
    39    21    23 1   
    40    22    49 1   
    41    23    24 2   
    42    23    25 1   
    43    25    26 1   
    44    25    50 1   
    45    26    27 ar  
    46    26    29 ar  
    47    27    28 ar  
    48    27    51 1   
    49    28    31 ar  
    50    28    52 1   
    51    29    30 ar  
    52    29    53 1   
    53    30    31 ar  
    54    30    54 1   
    55    31    32 1   
    56    32    33 1   
    57    32    34 1   
@<TRIPOS>SUBSTRUCTURE
     1 0RD         1 TEMP              0 ****  ****    0 ROOT
