@<TRIPOS>MOLECULE
0RE
   22    21     1     0     0
SMALL
bcc


@<TRIPOS>ATOM
      1 O01          0.0000     0.0000     0.0000 oh         1 0RE      -0.595800
      2 C02          1.4290     0.0000     0.0000 c3         1 0RE       0.194400
      3 C03          1.9390     0.0000     1.4440 c3         1 0RE       0.183100
      4 O04          1.5610    -1.2220     2.0820 oh         1 0RE      -0.582800
      5 C05          3.4630     0.1260     1.4460 c3         1 0RE      -0.036400
      6 C06          3.9620     0.2510     2.8860 c3         1 0RE      -0.029400
      7 C07          5.4870     0.3770     2.8900 c3         1 0RE      -0.028400
      8 C08          5.9860     0.5030     4.3300 c3         1 0RE       0.006900
      9 H1          -0.3140     0.0970    -0.8840 ho         1 0RE       0.391000
     10 H2           1.7900    -0.8850    -0.5110 h1         1 0RE      -0.006300
     11 H3           1.7900     0.8850    -0.5110 h1         1 0RE      -0.006300
     12 H4           1.5060     0.8360     1.9790 h1         1 0RE       0.007700
     13 H5           0.7810    -1.0810     2.5930 ho         1 0RE       0.395000
     14 H6           3.8990    -0.7540     0.9880 hc         1 0RE       0.021700
     15 H7           3.7540     1.0060     0.8850 hc         1 0RE       0.021700
     16 H8           3.5260     1.1300     3.3450 hc         1 0RE       0.019700
     17 H9           3.6720    -0.6300     3.4470 hc         1 0RE       0.019700
     18 H10          5.7770     1.2580     2.3290 hc         1 0RE       0.011200
     19 H11          5.9230    -0.5020     2.4320 hc         1 0RE       0.011200
     20 H12          5.6000     1.4160     4.7670 hc         1 0RE       0.000367
     21 H13          7.0690     0.5300     4.3360 hc         1 0RE       0.000367
     22 H14          5.6430    -0.3470     4.9060 hc         1 0RE       0.000367
@<TRIPOS>BOND
     1     1     2 1   
     2     1     9 1   
     3     2     3 1   
     4     2    10 1   
     5     2    11 1   
     6     3     4 1   
     7     3     5 1   
     8     3    12 1   
     9     4    13 1   
    10     5     6 1   
    11     5    14 1   
    12     5    15 1   
    13     6     7 1   
    14     6    16 1   
    15     6    17 1   
    16     7     8 1   
    17     7    18 1   
    18     7    19 1   
    19     8    20 1   
    20     8    21 1   
    21     8    22 1   
@<TRIPOS>SUBSTRUCTURE
     1 0RE         1 TEMP              0 ****  ****    0 ROOT
