@<TRIPOS>MOLECULE
0RE
   22    21     1     0     0
SMALL
bcc


@<TRIPOS>ATOM
      1 O01         -0.1390     0.5240     0.8010 oh         1 0RE      -0.613800
      2 C02          0.9310    -0.2520     0.2830 c3         1 0RE       0.089400
      3 C03          2.1670     0.1250     1.1070 c3         1 0RE       0.145100
      4 O04          2.0090    -0.2900     2.4560 oh         1 0RE      -0.601800
      5 C05          3.4320    -0.5270     0.5640 c3         1 0RE      -0.074400
      6 C06          3.3610    -2.0380     0.5430 c3         1 0RE      -0.079400
      7 C07          4.6950    -2.6720     0.2090 c3         1 0RE      -0.079400
      8 C08          5.0820    -2.4890    -1.2350 c3         1 0RE      -0.093100
      9 H1          -0.9350     0.2510     0.3310 ho         1 0RE       0.406000
     10 H2           0.7040    -1.3450     0.3970 h1         1 0RE       0.035700
     11 H3           1.0970    -0.0100    -0.7990 h1         1 0RE       0.035700
     12 H4           2.2850     1.2470     1.0830 h1         1 0RE       0.044700
     13 H5           1.1750     0.0910     2.7610 ho         1 0RE       0.415000
     14 H6           3.6120    -0.1350    -0.4710 hc         1 0RE       0.050700
     15 H7           4.2910    -0.2050     1.2100 hc         1 0RE       0.050700
     16 H8           2.5930    -2.3710    -0.2040 hc         1 0RE       0.046700
     17 H9           3.0230    -2.3940     1.5540 hc         1 0RE       0.046700
     18 H10          4.6380    -3.7700     0.4380 hc         1 0RE       0.040200
     19 H11          5.4920    -2.2390     0.8700 hc         1 0RE       0.040200
     20 H12          5.1920    -1.4050    -1.4820 hc         1 0RE       0.031700
     21 H13          6.0540    -2.9970    -1.4430 hc         1 0RE       0.031700
     22 H14          4.3060    -2.9240    -1.9110 hc         1 0RE       0.031700
@<TRIPOS>BOND
     1     1     2 1   
     2     1     9 1   
     3     2     3 1   
     4     2    10 1   
     5     2    11 1   
     6     3     4 1   
     7     3     5 1   
     8     3    12 1   
     9     4    13 1   
    10     5     6 1   
    11     5    14 1   
    12     5    15 1   
    13     6     7 1   
    14     6    16 1   
    15     6    17 1   
    16     7     8 1   
    17     7    18 1   
    18     7    19 1   
    19     8    20 1   
    20     8    21 1   
    21     8    22 1   
@<TRIPOS>SUBSTRUCTURE
     1 0RE         1 TEMP              0 ****  ****    0 ROOT
