@<TRIPOS>MOLECULE
molecule
   22    21     1     0     0
SMALL
bcc


@<TRIPOS>ATOM
      1 O01          0.0000     0.0000     0.0000 oh         1 0RE      -0.614800
      2 C02          1.4290     0.0000     0.0000 c3         1 0RE       0.115400
      3 C03          1.9390     0.0000     1.4440 c3         1 0RE       0.151100
      4 O04          1.5610    -1.2220     2.0820 oh         1 0RE      -0.601800
      5 C05          3.4630     0.1260     1.4460 c3         1 0RE      -0.083400
      6 C06          3.9620     0.2510     2.8860 c3         1 0RE      -0.079400
      7 C07          5.4870     0.3770     2.8900 c3         1 0RE      -0.084400
      8 C08          5.9860     0.5030     4.3300 c3         1 0RE      -0.091100
      9 H1          -0.3140     0.0970    -0.8840 ho         1 0RE       0.404000
     10 H2           1.7900     0.8850    -0.5110 h1         1 0RE       0.029200
     11 H3           1.7900    -0.8850    -0.5110 h1         1 0RE       0.029200
     12 H4           1.5060     0.8360     1.9790 h1         1 0RE       0.041700
     13 H5           0.7820    -1.0810     2.5930 ho         1 0RE       0.409000
     14 H6           3.8990    -0.7540     0.9880 hc         1 0RE       0.050700
     15 H7           3.7540     1.0060     0.8850 hc         1 0RE       0.050700
     16 H8           3.6720    -0.6300     3.4470 hc         1 0RE       0.047200
     17 H9           3.5260     1.1300     3.3450 hc         1 0RE       0.047200
     18 H10          5.9230    -0.5020     2.4320 hc         1 0RE       0.039200
     19 H11          5.7770     1.2580     2.3290 hc         1 0RE       0.039200
     20 H12          7.0690     0.5300     4.3350 hc         1 0RE       0.033367
     21 H13          5.6430    -0.3480     4.9060 hc         1 0RE       0.033367
     22 H14          5.6000     1.4160     4.7680 hc         1 0RE       0.033367
@<TRIPOS>BOND
     1     7     6 1   
     2     7     8 1   
     3     5     6 1   
     4     5     3 1   
     5     3     4 1   
     6     3     2 1   
     7     2     1 1   
     8     1     9 1   
     9     2    10 1   
    10     2    11 1   
    11     3    12 1   
    12     4    13 1   
    13     5    14 1   
    14     5    15 1   
    15     6    16 1   
    16     6    17 1   
    17     7    18 1   
    18     7    19 1   
    19     8    20 1   
    20     8    21 1   
    21     8    22 1   
@<TRIPOS>SUBSTRUCTURE
     1 0RE         1 TEMP              0 ****  ****    0 ROOT
