@<TRIPOS>MOLECULE
0RF
   64    67     1     0     0
SMALL
bcc


@<TRIPOS>ATOM
      1 N1           0.0000     0.0000     0.0000 nb         1 0RF      -0.649000
      2 C2           1.3170     0.0000     0.0000 ca         1 0RF       0.625900
      3 N3           2.0130     0.0000     1.1190 nb         1 0RF      -0.595000
      4 C4           1.4090    -0.0000     2.3000 ca         1 0RF       0.375600
      5 C5           0.0310    -0.0000     2.3470 ca         1 0RF      -0.280900
      6 C6          -0.6770     0.0000     1.1440 ca         1 0RF       0.523200
      7 C7           1.9680     0.0000     3.7050 c3         1 0RF       0.151800
      8 C8           0.7940     0.4360     4.6080 c3         1 0RF      -0.048400
      9 C9          -0.4370     0.0000     3.7830 c3         1 0RF       0.031600
     10 N10         -2.0630     0.0000     1.1420 nh         1 0RF      -0.511300
     11 C11         -1.5810     0.9980     3.9700 c3         1 0RF      -0.002100
     12 O12          2.4080    -1.3120     4.0630 oh         1 0RF      -0.572800
     13 C13         -2.5880     1.2670     0.6150 c3         1 0RF       0.131800
     14 C14         -4.1100     1.3000     0.7970 c3         1 0RF       0.045000
     15 N15         -4.6800     0.0890     0.1890 n          1 0RF      -0.155800
     16 C16         -4.1100    -1.2140     0.5660 c3         1 0RF       0.045000
     17 C17         -2.5890    -1.1490     0.3930 c3         1 0RF       0.131800
     18 C18         -5.6970     0.1700    -0.6910 c          1 0RF       0.606100
     19 C19         -6.3430    -1.0870    -1.2150 c3         1 0RF      -0.071400
     20 O20         -6.0940     1.2540    -1.0610 o          1 0RF      -0.633100
     21 C21         -7.3450    -1.5940    -0.2100 ca         1 0RF      -0.091300
     22 C22         -7.0540    -0.7840    -2.5350 c3         1 0RF       0.152800
     23 N23         -6.0610    -0.4190    -3.5530 n7         1 0RF      -0.574200
     24 C24         -7.1950    -2.8540     0.3410 ca         1 0RF      -0.086500
     25 C25         -8.1140    -3.3180     1.2630 ca         1 0RF      -0.096000
     26 C26         -9.1840    -2.5240     1.6350 ca         1 0RF      -0.034600
     27 C27         -9.3340    -1.2630     1.0830 ca         1 0RF      -0.096000
     28 C28         -8.4110    -0.7970     0.1650 ca         1 0RF      -0.086500
     29 Cl1        -10.3380    -3.1070     2.7920 cl         1 0RF      -0.025400
     30 C29         -6.7140    -0.0170    -4.8060 c3         1 0RF       0.117500
     31 C30         -5.7640     0.8690    -5.6150 c3         1 0RF      -0.012600
     32 C31         -7.0660    -1.2640    -5.6210 c3         1 0RF      -0.012600
     33 H1           1.8440    -0.0000    -0.9470 h5         1 0RF       0.002100
     34 H2           2.7830     0.7100     3.7830 h1         1 0RF       0.010700
     35 H3           0.7980     1.5130     4.7300 hc         1 0RF       0.036200
     36 H4           0.8240    -0.1060     5.5450 hc         1 0RF       0.036200
     37 H5          -0.7480    -0.9950     4.0750 hc         1 0RF       0.046700
     38 H6          -2.5040     0.5620     3.6070 hc         1 0RF       0.010367
     39 H7          -1.3660     1.9020     3.4130 hc         1 0RF       0.010367
     40 H8          -1.6840     1.2370     5.0210 hc         1 0RF       0.010367
     41 H9           3.3300    -1.2910     4.2610 ho         1 0RF       0.394000
     42 H10         -2.3500     1.3450    -0.4390 h1         1 0RF       0.027700
     43 H11         -2.1430     2.0940     1.1540 h1         1 0RF       0.027700
     44 H12         -4.3480     1.3230     1.8530 h1         1 0RF       0.035950
     45 H13         -4.5150     2.1770     0.3070 h1         1 0RF       0.035950
     46 H14         -4.5150    -1.9870    -0.0760 h1         1 0RF       0.035950
     47 H15         -4.3490    -1.4290     1.6000 h1         1 0RF       0.035950
     48 H16         -2.1440    -2.0600     0.7730 h1         1 0RF       0.027700
     49 H17         -2.3500    -1.0340    -0.6570 h1         1 0RF       0.027700
     50 H18         -5.5830    -1.8420    -1.3790 hc         1 0RF       0.042700
     51 H19         -7.6000    -1.6610    -2.8610 h1         1 0RF       0.022200
     52 H20         -7.7450     0.0380    -2.3930 h1         1 0RF       0.022200
     53 H21         -5.4580    -1.1990    -3.7260 hn         1 0RF       0.248800
     54 H23         -6.3580    -3.4760     0.0500 ha         1 0RF       0.118000
     55 H24         -7.9970    -4.3050     1.6950 ha         1 0RF       0.116000
     56 H25        -10.1700    -0.6400     1.3750 ha         1 0RF       0.116000
     57 H26         -8.5270     0.1900    -0.2670 ha         1 0RF       0.118000
     58 H27         -7.6190     0.5340    -4.5810 h1         1 0RF       0.036700
     59 H28         -4.8610     0.3160    -5.8440 hc         1 0RF       0.006867
     60 H29         -5.5110     1.7500    -5.0370 hc         1 0RF       0.006867
     61 H30         -6.2470     1.1690    -6.5380 hc         1 0RF       0.006867
     62 H31         -7.3540    -0.9710    -6.6230 hc         1 0RF       0.006867
     63 H32         -7.8880    -1.7850    -5.1470 hc         1 0RF       0.006867
     64 H33         -6.2040    -1.9180    -5.6700 hc         1 0RF       0.006867
@<TRIPOS>BOND
     1     1     2 ar  
     2     1     6 ar  
     3     2     3 ar  
     4     2    33 1   
     5     3     4 ar  
     6     4     5 ar  
     7     4     7 1   
     8     5     6 ar  
     9     5     9 1   
    10     6    10 1   
    11     7     8 1   
    12     7    12 1   
    13     7    34 1   
    14     8     9 1   
    15     8    35 1   
    16     8    36 1   
    17     9    11 1   
    18     9    37 1   
    19    10    13 1   
    20    10    17 1   
    21    11    38 1   
    22    11    39 1   
    23    11    40 1   
    24    12    41 1   
    25    13    14 1   
    26    13    42 1   
    27    13    43 1   
    28    14    15 1   
    29    14    44 1   
    30    14    45 1   
    31    15    16 1   
    32    15    18 1   
    33    16    17 1   
    34    16    46 1   
    35    16    47 1   
    36    17    48 1   
    37    17    49 1   
    38    18    19 1   
    39    18    20 2   
    40    19    21 1   
    41    19    22 1   
    42    19    50 1   
    43    21    24 ar  
    44    21    28 ar  
    45    22    23 1   
    46    22    51 1   
    47    22    52 1   
    48    23    30 1   
    49    23    53 1   
    50    24    25 ar  
    51    24    54 1   
    52    25    26 ar  
    53    25    55 1   
    54    26    27 ar  
    55    26    29 1   
    56    27    28 ar  
    57    27    56 1   
    58    28    57 1   
    59    30    31 1   
    60    30    32 1   
    61    30    58 1   
    62    31    59 1   
    63    31    60 1   
    64    31    61 1   
    65    32    62 1   
    66    32    63 1   
    67    32    64 1   
@<TRIPOS>SUBSTRUCTURE
     1 0RF         1 TEMP              0 ****  ****    0 ROOT
