@<TRIPOS>MOLECULE
molecule
   64    67     1     0     0
SMALL
bcc


@<TRIPOS>ATOM
      1 N1           0.0000     0.0000     0.0000 nb         1 0RF      -0.769000
      2 C2           1.3170     0.0000     0.0000 ca         1 0RF       0.685900
      3 N3           2.0130     0.0000     1.1190 nb         1 0RF      -0.727000
      4 C4           1.4090    -0.0000     2.3000 ca         1 0RF       0.438600
      5 C5           0.0310    -0.0000     2.3470 ca         1 0RF      -0.285900
      6 C6          -0.6770     0.0000     1.1440 ca         1 0RF       0.640200
      7 C7           1.9680     0.0000     3.7050 c3         1 0RF       0.098800
      8 C8           0.7940     0.4360     4.6080 c3         1 0RF      -0.091400
      9 C9          -0.4370     0.0000     3.7830 c3         1 0RF      -0.010400
     10 N10         -2.0630     0.0000     1.1420 nh         1 0RF      -0.718300
     11 C11         -1.5810     0.9980     3.9700 c3         1 0RF      -0.083100
     12 O12          2.4080    -1.3120     4.0630 oh         1 0RF      -0.588800
     13 C13         -2.5880     1.2670     0.6150 c3         1 0RF       0.149800
     14 C14         -4.1100     1.3000     0.7970 c3         1 0RF       0.107000
     15 N15         -4.6800     0.0890     0.1890 n          1 0RF      -0.492800
     16 C16         -4.1100    -1.2140     0.5660 c3         1 0RF       0.107000
     17 C17         -2.5890    -1.1490     0.3930 c3         1 0RF       0.149800
     18 C18         -5.6970     0.1700    -0.6910 c          1 0RF       0.683100
     19 C19         -6.3430    -1.0870    -1.2150 c3         1 0RF      -0.098400
     20 O20         -6.0940     1.2540    -1.0610 o          1 0RF      -0.595100
     21 C21         -7.3450    -1.5940    -0.2100 ca         1 0RF      -0.084300
     22 C22         -7.0540    -0.7840    -2.5350 c3         1 0RF       0.174800
     23 N23         -6.0610    -0.4190    -3.5530 n7         1 0RF      -0.807200
     24 C24         -7.1950    -2.8540     0.3410 ca         1 0RF      -0.111500
     25 C25         -8.1140    -3.3180     1.2630 ca         1 0RF      -0.120000
     26 C26         -9.1840    -2.5240     1.6350 ca         1 0RF       0.030400
     27 C27         -9.3340    -1.2630     1.0830 ca         1 0RF      -0.120000
     28 C28         -8.4110    -0.7970     0.1650 ca         1 0RF      -0.111500
     29 Cl1        -10.3380    -3.1070     2.7920 cl         1 0RF      -0.107400
     30 C29         -6.7140    -0.0170    -4.8060 c3         1 0RF       0.163500
     31 C30         -5.7640     0.8690    -5.6150 c3         1 0RF      -0.106600
     32 C31         -7.0660    -1.2640    -5.6210 c3         1 0RF      -0.106600
     33 H1           1.8440    -0.0000    -0.9470 h5         1 0RF       0.061100
     34 H2           2.7830     0.7100     3.7830 h1         1 0RF       0.052700
     35 H3           0.7980     1.5130     4.7300 hc         1 0RF       0.066700
     36 H4           0.8240    -0.1060     5.5450 hc         1 0RF       0.066700
     37 H5          -0.7480    -0.9950     4.0750 hc         1 0RF       0.077700
     38 H6          -2.5040     0.5620     3.6070 hc         1 0RF       0.039700
     39 H7          -1.3660     1.9020     3.4130 hc         1 0RF       0.039700
     40 H8          -1.6840     1.2370     5.0210 hc         1 0RF       0.039700
     41 H9           3.3300    -1.2910     4.2610 ho         1 0RF       0.409000
     42 H10         -2.3500     1.3450    -0.4390 h1         1 0RF       0.056450
     43 H11         -2.1430     2.0940     1.1540 h1         1 0RF       0.056450
     44 H12         -4.3480     1.3230     1.8530 h1         1 0RF       0.062200
     45 H13         -4.5150     2.1770     0.3070 h1         1 0RF       0.062200
     46 H14         -4.5150    -1.9870    -0.0760 h1         1 0RF       0.062200
     47 H15         -4.3490    -1.4290     1.6000 h1         1 0RF       0.062200
     48 H16         -2.1440    -2.0600     0.7730 h1         1 0RF       0.056450
     49 H17         -2.3500    -1.0340    -0.6570 h1         1 0RF       0.056450
     50 H18         -5.5830    -1.8420    -1.3790 hc         1 0RF       0.065700
     51 H19         -7.6000    -1.6610    -2.8610 h1         1 0RF       0.046700
     52 H20         -7.7450     0.0380    -2.3930 h1         1 0RF       0.046700
     53 H21         -5.4580    -1.1990    -3.7260 hn         1 0RF       0.346800
     54 H23         -6.3580    -3.4760     0.0500 ha         1 0RF       0.144500
     55 H24         -7.9970    -4.3050     1.6950 ha         1 0RF       0.146500
     56 H25        -10.1700    -0.6400     1.3750 ha         1 0RF       0.146500
     57 H26         -8.5270     0.1900    -0.2670 ha         1 0RF       0.144500
     58 H27         -7.6190     0.5340    -4.5810 h1         1 0RF       0.062700
     59 H28         -4.8610     0.3160    -5.8440 hc         1 0RF       0.037700
     60 H29         -5.5110     1.7500    -5.0370 hc         1 0RF       0.037700
     61 H30         -6.2470     1.1690    -6.5380 hc         1 0RF       0.037700
     62 H31         -7.3540    -0.9710    -6.6230 hc         1 0RF       0.037700
     63 H32         -7.8880    -1.7850    -5.1470 hc         1 0RF       0.037700
     64 H33         -6.2040    -1.9180    -5.6700 hc         1 0RF       0.037700
@<TRIPOS>BOND
     1     3     2 ar  
     2     3     4 ar  
     3     2     1 ar  
     4     7    12 1   
     5     7     4 1   
     6     7     8 1   
     7     4     5 ar  
     8     1     6 ar  
     9    11     9 1   
    10     5     6 ar  
    11     5     9 1   
    12     8     9 1   
    13     6    10 1   
    14    13    10 1   
    15    13    14 1   
    16    10    17 1   
    17    29    26 1   
    18    17    16 1   
    19    27    26 ar  
    20    27    28 ar  
    21    14    15 1   
    22    26    25 ar  
    23    28    21 ar  
    24    15    16 1   
    25    15    18 1   
    26    25    24 ar  
    27    20    18 2   
    28    18    19 1   
    29    21    24 ar  
    30    21    19 1   
    31    19    22 1   
    32    22    23 1   
    33    23    30 1   
    34    30    32 1   
    35    30    31 1   
    36     2    33 1   
    37     7    34 1   
    38     8    35 1   
    39     8    36 1   
    40     9    37 1   
    41    11    38 1   
    42    11    39 1   
    43    11    40 1   
    44    12    41 1   
    45    13    42 1   
    46    13    43 1   
    47    14    44 1   
    48    14    45 1   
    49    16    46 1   
    50    16    47 1   
    51    17    48 1   
    52    17    49 1   
    53    19    50 1   
    54    22    51 1   
    55    22    52 1   
    56    23    53 1   
    57    24    54 1   
    58    25    55 1   
    59    27    56 1   
    60    28    57 1   
    61    30    58 1   
    62    31    59 1   
    63    31    60 1   
    64    31    61 1   
    65    32    62 1   
    66    32    63 1   
    67    32    64 1   
@<TRIPOS>SUBSTRUCTURE
     1 0RF         1 TEMP              0 ****  ****    0 ROOT
