@<TRIPOS>MOLECULE
0RF
   65    68     1     0     0
SMALL
bcc


@<TRIPOS>ATOM
      1 N1          -0.7090    -1.3250     0.7470 nb         1 0RF      -0.743000
      2 C2           0.3960    -2.0760     0.9310 ca         1 0RF       0.644900
      3 N3           1.4240    -1.8560     1.8080 nb         1 0RF      -0.674000
      4 C4           1.2960    -0.7410     2.5400 ca         1 0RF       0.402600
      5 C5           0.1910     0.1570     2.4250 ca         1 0RF      -0.276900
      6 C6          -0.8250    -0.1790     1.5040 ca         1 0RF       0.604200
      7 C7           2.2640    -0.2480     3.6040 c3         1 0RF       0.094800
      8 C8           1.5750     0.9890     4.2140 c3         1 0RF      -0.086400
      9 C9           0.3260     1.3090     3.3660 c3         1 0RF      -0.002400
     10 N10         -1.9570     0.6980     1.3590 nh         1 0RF      -0.707300
     11 C11          0.4740     2.6360     2.6550 c3         1 0RF      -0.089100
     12 O12          2.4520    -1.1940     4.6350 oh         1 0RF      -0.581800
     13 C13         -2.5200     0.8040     0.0240 c3         1 0RF       0.163300
     14 C14         -3.5590    -0.2670    -0.3650 c3         1 0RF       0.046000
     15 N15         -4.5300    -0.5410     0.6840 n          1 0RF      -0.415800
     16 C16         -4.0030    -0.6370     2.0290 c3         1 0RF       0.046000
     17 C17         -2.9860     0.4800     2.3620 c3         1 0RF       0.163300
     18 C18         -5.8420    -0.7290     0.3600 c          1 0RF       0.647100
     19 C19         -6.8840    -1.0580     1.4370 c3         1 0RF      -0.092400
     20 O20         -6.2240    -0.6810    -0.8410 o          1 0RF      -0.685100
     21 C21         -7.1360     0.1060     2.3410 ca         1 0RF      -0.138300
     22 C22         -8.2350    -1.4160     0.7870 c3         1 0RF       0.118800
     23 N23         -8.1550    -2.5270    -0.2010 ny         1 0RF      -0.774000
     24 C24         -7.2080    -0.0870     3.7260 ca         1 0RF      -0.108000
     25 C25         -7.4630     0.9890     4.5720 ca         1 0RF      -0.117000
     26 C26         -7.6460     2.2690     4.0340 ca         1 0RF       0.038400
     27 C27         -7.5710     2.4690     2.6500 ca         1 0RF      -0.117000
     28 C28         -7.3170     1.3890     1.8090 ca         1 0RF      -0.108000
     29 Cl1         -7.9570     3.5770     5.0590 cl         1 0RF      -0.042400
     30 C29         -9.5130    -2.9530    -0.7090 c3         1 0RF       0.133500
     31 C30         -9.3830    -3.6390    -2.0630 c3         1 0RF      -0.133600
     32 C31        -10.2210    -3.8690     0.2780 c3         1 0RF      -0.133600
     33 H1           0.4810    -2.9880     0.3030 h5         1 0RF       0.059100
     34 H2           3.2480     0.0160     3.1290 h1         1 0RF       0.067700
     35 H3           2.2850     1.8500     4.2200 hc         1 0RF       0.072700
     36 H4           1.2830     0.7670     5.2710 hc         1 0RF       0.072700
     37 H5          -0.5800     1.3540     4.0320 hc         1 0RF       0.059700
     38 H6           0.6220     3.4500     3.4060 hc         1 0RF       0.046033
     39 H7           1.3550     2.6230     1.9700 hc         1 0RF       0.046033
     40 H8          -0.4390     2.8670     2.0560 hc         1 0RF       0.046033
     41 H9           2.9130    -1.9500     4.2490 ho         1 0RF       0.421000
     42 H10         -3.0070     1.8210    -0.0220 h1         1 0RF       0.077950
     43 H11         -1.6970     0.7730    -0.7430 h1         1 0RF       0.077950
     44 H12         -3.0340    -1.2350    -0.6090 h1         1 0RF       0.074200
     45 H13         -4.0970     0.0870    -1.2910 h1         1 0RF       0.074200
     46 H14         -3.4940    -1.6400     2.1300 h1         1 0RF       0.074200
     47 H15         -4.8310    -0.5770     2.7880 h1         1 0RF       0.074200
     48 H16         -2.5110     0.2250     3.3500 h1         1 0RF       0.077950
     49 H17         -3.5350     1.4580     2.4720 h1         1 0RF       0.077950
     50 H18         -6.5150    -1.9390     2.0370 hc         1 0RF       0.084700
     51 H19         -8.6250    -0.5060     0.2430 hx         1 0RF       0.112200
     52 H20         -8.9630    -1.7070     1.5960 hx         1 0RF       0.112200
     53 H21         -7.6860    -3.3330     0.2200 hn         1 0RF       0.461800
     54 H23         -7.0610    -1.0900     4.1560 ha         1 0RF       0.145500
     55 H24         -7.5190     0.8320     5.6620 ha         1 0RF       0.166500
     56 H25         -7.7100     3.4770     2.2250 ha         1 0RF       0.166500
     57 H26         -7.2480     1.5470     0.7200 ha         1 0RF       0.145500
     58 H27        -10.1140    -2.0010    -0.8350 hx         1 0RF       0.107700
     59 H28         -8.8910    -2.9750    -2.8160 hc         1 0RF       0.076867
     60 H29         -8.8090    -4.5930    -1.9850 hc         1 0RF       0.076867
     61 H30        -10.4120    -3.8780    -2.4330 hc         1 0RF       0.076867
     62 H31         -9.6650    -4.8290     0.4160 hc         1 0RF       0.076867
     63 H32        -10.3600    -3.3800     1.2720 hc         1 0RF       0.076867
     64 H33        -11.2340    -4.1110    -0.1340 hc         1 0RF       0.076867
     65 H232        -7.5820    -2.2000    -1.0040 hn         1 0RF       0.461800
@<TRIPOS>BOND
     1     1     2 ar  
     2     1     6 ar  
     3     2     3 ar  
     4     2    33 1   
     5     3     4 ar  
     6     4     5 ar  
     7     4     7 1   
     8     5     6 ar  
     9     5     9 1   
    10     6    10 1   
    11     7     8 1   
    12     7    12 1   
    13     7    34 1   
    14     8     9 1   
    15     8    35 1   
    16     8    36 1   
    17     9    11 1   
    18     9    37 1   
    19    10    13 1   
    20    10    17 1   
    21    11    38 1   
    22    11    39 1   
    23    11    40 1   
    24    12    41 1   
    25    13    14 1   
    26    13    42 1   
    27    13    43 1   
    28    14    15 1   
    29    14    44 1   
    30    14    45 1   
    31    15    16 1   
    32    15    18 1   
    33    16    17 1   
    34    16    46 1   
    35    16    47 1   
    36    17    48 1   
    37    17    49 1   
    38    18    19 1   
    39    18    20 2   
    40    19    21 1   
    41    19    22 1   
    42    19    50 1   
    43    21    24 ar  
    44    21    28 ar  
    45    22    23 1   
    46    22    51 1   
    47    22    52 1   
    48    23    30 1   
    49    23    53 1   
    50    23    65 1   
    51    24    25 ar  
    52    24    54 1   
    53    25    26 ar  
    54    25    55 1   
    55    26    27 ar  
    56    26    29 1   
    57    27    28 ar  
    58    27    56 1   
    59    28    57 1   
    60    30    31 1   
    61    30    32 1   
    62    30    58 1   
    63    31    59 1   
    64    31    60 1   
    65    31    61 1   
    66    32    62 1   
    67    32    63 1   
    68    32    64 1   
@<TRIPOS>SUBSTRUCTURE
     1 0RF         1 TEMP              0 ****  ****    0 ROOT
