@<TRIPOS>MOLECULE
molecule
   54    57     1     0     0
SMALL
bcc


@<TRIPOS>ATOM
      1 Cl2          0.0000     0.0000     0.0000 cl         1 0RK      -0.112400
      2 C27          1.7360     0.0000     0.0000 ca         1 0RK      -0.040600
      3 C14          2.4280     0.0000     1.1990 ca         1 0RK       0.010000
      4 C31          2.4270    -0.0040    -1.1990 ca         1 0RK      -0.032000
      5 C26          3.8090    -0.0050    -1.2000 ca         1 0RK      -0.232000
      6 C21          4.5030    -0.0000    -0.0000 ca         1 0RK       0.242100
      7 O33          5.8620     0.0000     0.0000 os         1 0RK      -0.313900
      8 C35          6.5110    -0.0050    -1.2730 c3         1 0RK       0.124700
      9 C3           3.8080     0.0010     1.2010 ca         1 0RK      -0.343500
     10 S1           4.6870     0.0060     2.7280 sy         1 0RK       1.439200
     11 O16          5.6670     1.0320     2.6230 o          1 0RK      -0.616800
     12 O17          3.7070    -0.0300     3.7560 o          1 0RK      -0.616800
     13 N2           5.5160    -1.4240     2.8220 nh         1 0RK      -0.662900
     14 C12          4.9930    -2.6610     3.4080 c3         1 0RK       0.235800
     15 C19          6.1250    -3.6890     3.2580 c3         1 0RK      -0.038100
     16 C6           7.2410    -2.9300     2.5750 ca         1 0RK      -0.123300
     17 C4           6.8140    -1.6300     2.3500 ca         1 0RK       0.152600
     18 C13          8.5040    -3.3370     2.1840 ca         1 0RK      -0.059300
     19 C34          8.9450    -4.7560     2.4330 c3         1 0RK      -0.045800
     20 C18          9.3620    -2.4510     1.5670 ca         1 0RK      -0.132000
     21 C9           8.9510    -1.1360     1.3370 ca         1 0RK      -0.118600
     22 C8           7.6750    -0.7310     1.7200 ca         1 0RK      -0.092000
     23 C7           9.8630    -0.1800     0.6760 c          1 0RK       0.660700
     24 O24          9.5050     0.9640     0.4770 o          1 0RK      -0.582100
     25 N15         11.0940    -0.5760     0.2950 ns         1 0RK      -0.464100
     26 C23         11.9130     0.2900    -0.4260 ca         1 0RK       0.022600
     27 C20         11.3500     1.1890    -1.3260 ca         1 0RK      -0.149000
     28 C10         12.1580     2.0470    -2.0400 ca         1 0RK       0.064400
     29 Cl1         11.4550     3.1690    -3.1640 cl         1 0RK      -0.088400
     30 C29         13.2920     0.2580    -0.2380 ca         1 0RK      -0.189000
     31 C22         14.1050     1.1130    -0.9470 ca         1 0RK      -0.072000
     32 C5          13.5450     2.0140    -1.8580 ca         1 0RK      -0.103600
     33 C11         14.4120     2.9310    -2.6190 c          1 0RK       0.878200
     34 O25         15.7470     2.9010    -2.4370 o          1 0RK      -0.826300
     35 O30         13.9240     3.7130    -3.4110 o          1 0RK      -0.826300
     36 H1           1.8850     0.0000     2.1370 ha         1 0RK       0.169000
     37 H2           1.8850    -0.0080    -2.1360 ha         1 0RK       0.145000
     38 H3           4.3500    -0.0080    -2.1390 ha         1 0RK       0.152000
     39 H4           7.5780     0.1220    -1.1350 h1         1 0RK       0.056367
     40 H5           6.3210    -0.9480    -1.7710 h1         1 0RK       0.056367
     41 H6           6.1250     0.8070    -1.8770 h1         1 0RK       0.056367
     42 H7           4.1270    -2.9900     2.8470 h1         1 0RK       0.055200
     43 H8           4.7820    -2.5030     4.4590 h1         1 0RK       0.055200
     44 H9           6.4530    -4.0170     4.2380 hc         1 0RK       0.059700
     45 H10          5.7970    -4.5040     2.6250 hc         1 0RK       0.059700
     46 H11          8.2660    -5.4380     1.9340 hc         1 0RK       0.041367
     47 H12          9.9470    -4.8960     2.0450 hc         1 0RK       0.041367
     48 H13          8.9390    -4.9540     3.4980 hc         1 0RK       0.041367
     49 H14         10.3530    -2.7710     1.2700 ha         1 0RK       0.131000
     50 H15          7.3560     0.2890     1.5420 ha         1 0RK       0.202000
     51 H16         11.4260    -1.4870     0.5440 hn         1 0RK       0.314500
     52 H17         10.2800     1.1900    -1.4910 ha         1 0RK       0.141000
     53 H18         13.7260    -0.4400     0.4680 ha         1 0RK       0.109000
     54 H19         15.1790     1.0860    -0.8010 ha         1 0RK       0.163000
@<TRIPOS>BOND
     1     8     7 1   
     2    12    10 2   
     3     7     6 1   
     4    14    15 1   
     5    14    13 1   
     6     6     5 ar  
     7     6     9 ar  
     8    10     9 1   
     9    10    13 1   
    10    10    11 2   
    11     5     4 ar  
    12    15    16 1   
    13     9     3 ar  
    14    13    17 1   
    15     4     2 ar  
    16     3     2 ar  
    17    16    17 ar  
    18    16    18 ar  
    19    17    22 ar  
    20     2     1 1   
    21    19    18 1   
    22    18    20 ar  
    23    22    21 ar  
    24    20    21 ar  
    25    21    23 1   
    26    25    23 1   
    27    25    26 1   
    28    30    26 ar  
    29    30    31 ar  
    30    23    24 2   
    31    26    27 ar  
    32    31    32 ar  
    33    27    28 ar  
    34    32    28 ar  
    35    32    33 1   
    36    35    33 1   
    37    28    29 1   
    38    33    34 1   
    39     3    36 1   
    40     4    37 1   
    41     5    38 1   
    42     8    39 1   
    43     8    40 1   
    44     8    41 1   
    45    14    42 1   
    46    14    43 1   
    47    15    44 1   
    48    15    45 1   
    49    19    46 1   
    50    19    47 1   
    51    19    48 1   
    52    20    49 1   
    53    22    50 1   
    54    25    51 1   
    55    27    52 1   
    56    30    53 1   
    57    31    54 1   
@<TRIPOS>SUBSTRUCTURE
     1 0RK         1 TEMP              0 ****  ****    0 ROOT
