@<TRIPOS>MOLECULE
0RK
   54    57     1     0     0
SMALL
bcc


@<TRIPOS>ATOM
      1 Cl2          0.0500     0.1730     2.0280 cl         1 0RK      -0.061400
      2 C27          1.6550    -0.0070     1.5110 ca         1 0RK      -0.041600
      3 C14          2.7040     0.2770     2.3840 ca         1 0RK       0.009000
      4 C31          1.9210    -0.4470     0.2080 ca         1 0RK      -0.029000
      5 C26          3.2350    -0.5990    -0.2150 ca         1 0RK      -0.225000
      6 C21          4.2860    -0.3130     0.6710 ca         1 0RK       0.242100
      7 O33          5.6130    -0.4690     0.3410 os         1 0RK      -0.333900
      8 C35          5.9090    -0.7580    -1.0230 c3         1 0RK       0.117700
      9 C3           4.0420     0.1410     1.9830 ca         1 0RK      -0.390500
     10 S1           5.2550     0.5740     3.0900 sy         1 0RK       1.526200
     11 O16          4.6110     1.0300     4.2580 o          1 0RK      -0.645800
     12 O17          6.1480     1.4860     2.4940 o          1 0RK      -0.645800
     13 N2           6.0400    -0.8240     3.3840 nh         1 0RK      -0.678900
     14 C12          7.3760    -1.1160     2.8590 c3         1 0RK       0.225800
     15 C19          7.7540    -2.5530     3.3060 c3         1 0RK      -0.034100
     16 C6           6.5590    -3.0020     4.0830 ca         1 0RK      -0.118300
     17 C4           5.5890    -1.9530     4.1040 ca         1 0RK       0.164600
     18 C13          6.3110    -4.2070     4.7200 ca         1 0RK      -0.046300
     19 C34          7.3040    -5.3050     4.7230 c3         1 0RK      -0.051800
     20 C18          5.0800    -4.3710     5.3790 ca         1 0RK      -0.110000
     21 C9           4.1390    -3.3440     5.4100 ca         1 0RK      -0.099600
     22 C8           4.3780    -2.1150     4.7770 ca         1 0RK      -0.149000
     23 C7           2.8340    -3.6160     6.1050 c          1 0RK       0.665700
     24 O24          2.2720    -4.7180     5.9420 o          1 0RK      -0.598100
     25 N15          2.3500    -2.6000     6.8970 ns         1 0RK      -0.449100
     26 C23          1.1750    -2.6050     7.6830 ca         1 0RK       0.014600
     27 C20          0.1970    -3.6100     7.5980 ca         1 0RK      -0.156000
     28 C10         -0.9490    -3.5290     8.3990 ca         1 0RK       0.047400
     29 Cl1         -2.0980    -4.7820     8.2490 cl         1 0RK      -0.109400
     30 C29          0.9760    -1.5310     8.5840 ca         1 0RK      -0.186000
     31 C22         -0.1720    -1.4800     9.3620 ca         1 0RK      -0.095000
     32 C5          -1.1560    -2.4730     9.2880 ca         1 0RK      -0.096600
     33 C11         -2.3930    -2.3410    10.1770 c          1 0RK       0.918200
     34 O25         -3.3830    -1.7220     9.7030 o          1 0RK      -0.814300
     35 O30         -2.3250    -2.8240    11.3380 o          1 0RK      -0.814300
     36 H1           2.4840     0.6220     3.4150 ha         1 0RK       0.187000
     37 H2           1.0910    -0.6760    -0.4800 ha         1 0RK       0.151000
     38 H3           3.4390    -0.9480    -1.2360 ha         1 0RK       0.145000
     39 H4           7.0290    -0.7410    -1.0480 h1         1 0RK       0.050700
     40 H5           5.4860     0.0270    -1.6950 h1         1 0RK       0.050700
     41 H6           5.5210    -1.7690    -1.2990 h1         1 0RK       0.050700
     42 H7           8.1060    -0.3660     3.2670 h1         1 0RK       0.058700
     43 H8           7.3630    -1.0360     1.7380 h1         1 0RK       0.058700
     44 H9           8.6750    -2.5420     3.9390 hc         1 0RK       0.058700
     45 H10          7.9390    -3.2100     2.4210 hc         1 0RK       0.058700
     46 H11          8.0400    -5.1820     3.8900 hc         1 0RK       0.045367
     47 H12          7.8650    -5.3090     5.6910 hc         1 0RK       0.045367
     48 H13          6.7970    -6.2950     4.6080 hc         1 0RK       0.045367
     49 H14          4.8450    -5.3300     5.8690 ha         1 0RK       0.158000
     50 H15          3.6320    -1.3050     4.8070 ha         1 0RK       0.158000
     51 H16          2.9150    -1.7850     6.9890 hn         1 0RK       0.315500
     52 H17          0.3230    -4.4620     6.9100 ha         1 0RK       0.163000
     53 H18          1.7240    -0.7300     8.6730 ha         1 0RK       0.112000
     54 H19         -0.3240    -0.6420    10.0610 ha         1 0RK       0.140000
@<TRIPOS>BOND
     1     1     2 1   
     2     2     3 ar  
     3     2     4 ar  
     4     3     9 ar  
     5     3    36 1   
     6     4     5 ar  
     7     4    37 1   
     8     5     6 ar  
     9     5    38 1   
    10     6     7 1   
    11     6     9 ar  
    12     7     8 1   
    13     8    39 1   
    14     8    40 1   
    15     8    41 1   
    16     9    10 1   
    17    10    11 2   
    18    10    12 2   
    19    10    13 1   
    20    13    14 1   
    21    13    17 1   
    22    14    15 1   
    23    14    42 1   
    24    14    43 1   
    25    15    16 1   
    26    15    44 1   
    27    15    45 1   
    28    16    17 ar  
    29    16    18 ar  
    30    17    22 ar  
    31    18    19 1   
    32    18    20 ar  
    33    19    46 1   
    34    19    47 1   
    35    19    48 1   
    36    20    21 ar  
    37    20    49 1   
    38    21    22 ar  
    39    21    23 1   
    40    22    50 1   
    41    23    24 2   
    42    23    25 1   
    43    25    26 1   
    44    25    51 1   
    45    26    27 ar  
    46    26    30 ar  
    47    27    28 ar  
    48    27    52 1   
    49    28    29 1   
    50    28    32 ar  
    51    30    31 ar  
    52    30    53 1   
    53    31    32 ar  
    54    31    54 1   
    55    32    33 1   
    56    33    34 1   
    57    33    35 1   
@<TRIPOS>SUBSTRUCTURE
     1 0RK         1 TEMP              0 ****  ****    0 ROOT
