@<TRIPOS>MOLECULE
0RK
   54    57     1     0     0
SMALL
bcc


@<TRIPOS>ATOM
      1 Cl2          0.0000     0.0000     0.0000 cl         1 0RK      -0.029400
      2 C27          1.7360     0.0000     0.0000 ca         1 0RK      -0.115600
      3 C14          2.4280     0.0000     1.1990 ca         1 0RK       0.045000
      4 C31          2.4270    -0.0040    -1.1990 ca         1 0RK      -0.002000
      5 C26          3.8090    -0.0050    -1.2000 ca         1 0RK      -0.230000
      6 C21          4.5030    -0.0000    -0.0000 ca         1 0RK       0.257100
      7 O33          5.8620     0.0000     0.0000 os         1 0RK      -0.288900
      8 C35          6.5110    -0.0050    -1.2730 c3         1 0RK       0.233700
      9 C3           3.8080     0.0010     1.2010 ca         1 0RK      -0.199500
     10 S1           4.6870     0.0060     2.7280 sy         1 0RK       1.062200
     11 O16          5.6670     1.0320     2.6230 o          1 0RK      -0.571800
     12 O17          3.7070    -0.0300     3.7560 o          1 0RK      -0.571800
     13 N2           5.5160    -1.4240     2.8220 nh         1 0RK      -0.338900
     14 C12          4.9930    -2.6610     3.4080 c3         1 0RK       0.231800
     15 C19          6.1250    -3.6890     3.2580 c3         1 0RK       0.035900
     16 C6           7.2410    -2.9300     2.5750 ca         1 0RK      -0.148300
     17 C4           6.8140    -1.6300     2.3500 ca         1 0RK       0.081600
     18 C13          8.5040    -3.3370     2.1840 ca         1 0RK      -0.057300
     19 C34          8.9450    -4.7560     2.4330 c3         1 0RK       0.065200
     20 C18          9.3620    -2.4510     1.5670 ca         1 0RK      -0.121000
     21 C9           8.9510    -1.1360     1.3370 ca         1 0RK      -0.122600
     22 C8           7.6750    -0.7310     1.7200 ca         1 0RK      -0.083000
     23 C7           9.8630    -0.1800     0.6760 c          1 0RK       0.562700
     24 O24          9.5050     0.9640     0.4770 o          1 0RK      -0.628100
     25 N15         11.0940    -0.5760     0.2950 ns         1 0RK      -0.016100
     26 C23         11.9130     0.2900    -0.4260 ca         1 0RK      -0.129400
     27 C20         11.3500     1.1890    -1.3260 ca         1 0RK      -0.131000
     28 C10         12.1580     2.0470    -2.0400 ca         1 0RK      -0.000600
     29 Cl1         11.4550     3.1690    -3.1640 cl         1 0RK      -0.000400
     30 C29         13.2920     0.2580    -0.2380 ca         1 0RK      -0.167000
     31 C22         14.1050     1.1130    -0.9470 ca         1 0RK      -0.043000
     32 C5          13.5450     2.0140    -1.8580 ca         1 0RK      -0.101600
     33 C11         14.4120     2.9310    -2.6190 c          1 0RK       0.969200
     34 O25         15.7470     2.9010    -2.4370 o          1 0RK      -0.877800
     35 O30         13.9240     3.7130    -3.4110 o          1 0RK      -0.877800
     36 H1           1.8850     0.0000     2.1370 ha         1 0RK       0.136000
     37 H2           1.8850    -0.0080    -2.1360 ha         1 0RK       0.109000
     38 H3           4.3500    -0.0080    -2.1390 ha         1 0RK       0.134000
     39 H4           7.5780     0.1220    -1.1350 h1         1 0RK       0.011033
     40 H5           6.3210    -0.9480    -1.7710 h1         1 0RK       0.011033
     41 H6           6.1250     0.8070    -1.8770 h1         1 0RK       0.011033
     42 H7           4.1270    -2.9900     2.8470 h1         1 0RK       0.017200
     43 H8           4.7820    -2.5030     4.4590 h1         1 0RK       0.017200
     44 H9           6.4530    -4.0170     4.2380 hc         1 0RK       0.023700
     45 H10          5.7970    -4.5040     2.6250 hc         1 0RK       0.023700
     46 H11          8.2660    -5.4380     1.9340 hc         1 0RK       0.004700
     47 H12          9.9470    -4.8960     2.0450 hc         1 0RK       0.004700
     48 H13          8.9390    -4.9540     3.4980 hc         1 0RK       0.004700
     49 H14         10.3530    -2.7710     1.2700 ha         1 0RK       0.111000
     50 H15          7.3560     0.2890     1.5420 ha         1 0RK       0.184000
     51 H16         11.4260    -1.4870     0.5440 hn         1 0RK       0.159500
     52 H17         10.2800     1.1900    -1.4910 ha         1 0RK       0.124000
     53 H18         13.7260    -0.4400     0.4680 ha         1 0RK       0.088000
     54 H19         15.1790     1.0860    -0.8010 ha         1 0RK       0.132000
@<TRIPOS>BOND
     1     1     2 1   
     2     2     3 ar  
     3     2     4 ar  
     4     3     9 ar  
     5     3    36 1   
     6     4     5 ar  
     7     4    37 1   
     8     5     6 ar  
     9     5    38 1   
    10     6     7 1   
    11     6     9 ar  
    12     7     8 1   
    13     8    39 1   
    14     8    40 1   
    15     8    41 1   
    16     9    10 1   
    17    10    11 2   
    18    10    12 2   
    19    10    13 1   
    20    13    14 1   
    21    13    17 1   
    22    14    15 1   
    23    14    42 1   
    24    14    43 1   
    25    15    16 1   
    26    15    44 1   
    27    15    45 1   
    28    16    17 ar  
    29    16    18 ar  
    30    17    22 ar  
    31    18    19 1   
    32    18    20 ar  
    33    19    46 1   
    34    19    47 1   
    35    19    48 1   
    36    20    21 ar  
    37    20    49 1   
    38    21    22 ar  
    39    21    23 1   
    40    22    50 1   
    41    23    24 2   
    42    23    25 1   
    43    25    26 1   
    44    25    51 1   
    45    26    27 ar  
    46    26    30 ar  
    47    27    28 ar  
    48    27    52 1   
    49    28    29 1   
    50    28    32 ar  
    51    30    31 ar  
    52    30    53 1   
    53    31    32 ar  
    54    31    54 1   
    55    32    33 1   
    56    33    34 1   
    57    33    35 1   
@<TRIPOS>SUBSTRUCTURE
     1 0RK         1 TEMP              0 ****  ****    0 ROOT
