@<TRIPOS>MOLECULE
molecule
   47    48     1     0     0
SMALL
bcc


@<TRIPOS>ATOM
      1 O16          0.0000     0.0000     0.0000 o          1 0RM      -0.628100
      2 C15          1.2160     0.0000     0.0000 c          1 0RM       0.682700
      3 N14          1.8900     0.0000     1.1660 ns         1 0RM      -0.507900
      4 C9           1.1590     0.0010     2.4350 c3         1 0RM       0.014700
      5 C5           2.0350    -0.6080     3.5310 c3         1 0RM       0.309600
      6 S1           1.1040    -0.7770     5.1100 ss         1 0RM      -0.414200
      7 C2           2.0900    -2.1990     5.7230 c3         1 0RM       0.032100
      8 C10          3.1350    -1.7330     6.7400 c3         1 0RM      -0.067600
      9 C6           1.1790    -3.2620     6.3390 c3         1 0RM      -0.067600
     10 C3           2.7710    -2.7400     4.4500 c3         1 0RM       0.053500
     11 C11          4.2640    -2.5960     4.5980 c          1 0RM       0.908600
     12 O12          4.8370    -1.6730     4.0700 o          1 0RM      -0.854800
     13 O13          4.9560    -3.4930     5.3190 o          1 0RM      -0.854800
     14 N4           2.3500    -2.0340     3.2370 n7         1 0RM      -0.781200
     15 C7           0.8000     1.4170     2.8080 c          1 0RM       0.892600
     16 O8           1.4620     2.3370     2.3900 o          1 0RM      -0.842300
     17 OG          -0.2540     1.6550     3.6030 o          1 0RM      -0.842300
     18 C17          1.9520    -0.0070    -1.2750 ca         1 0RM      -0.165600
     19 C18          2.3060     1.2020    -1.8940 ca         1 0RM       0.202600
     20 O25          1.9700     2.3830    -1.3190 os         1 0RM      -0.279400
     21 C26          2.3640     3.5740    -2.0060 c3         1 0RM       0.133700
     22 C19          2.9990     1.1830    -3.0930 ca         1 0RM      -0.279000
     23 C20          3.3420    -0.0200    -3.6810 ca         1 0RM      -0.065000
     24 C21          2.9980    -1.2170    -3.0800 ca         1 0RM      -0.279000
     25 C22          2.3100    -1.2220    -1.8780 ca         1 0RM       0.202600
     26 O23          1.9790    -2.3980    -1.2870 os         1 0RM      -0.279400
     27 C24          2.3760    -3.5950    -1.9590 c3         1 0RM       0.133700
     28 H1           2.8910     0.0320     1.1660 hn         1 0RM       0.322500
     29 H2           0.2530    -0.5850     2.3300 h1         1 0RM       0.077700
     30 H3           2.9420    -0.0350     3.6780 h2         1 0RM       0.118700
     31 H4           3.7140    -2.5830     7.0790 hc         1 0RM       0.032700
     32 H5           2.6360    -1.2760     7.5860 hc         1 0RM       0.032700
     33 H6           3.7930    -1.0090     6.2750 hc         1 0RM       0.032700
     34 H7           0.4530    -3.5860     5.6030 hc         1 0RM       0.032700
     35 H8           0.6630    -2.8440     7.1950 hc         1 0RM       0.032700
     36 H9           1.7740    -4.1100     6.6550 hc         1 0RM       0.032700
     37 H10          2.5250    -3.7890     4.3440 h1         1 0RM       0.044700
     38 H12          1.5410    -2.4820     2.8540 hn         1 0RM       0.331800
     39 H15          2.0270     4.4400    -1.4500 h1         1 0RM       0.033033
     40 H16          3.4430     3.6000    -2.0950 h1         1 0RM       0.033033
     41 H17          1.9200     3.5840    -2.9940 h1         1 0RM       0.033033
     42 H18          3.2730     2.1150    -3.5730 ha         1 0RM       0.120500
     43 H19          3.8820    -0.0250    -4.6200 ha         1 0RM       0.107000
     44 H20          3.2730    -2.1540    -3.5480 ha         1 0RM       0.120500
     45 H21          3.4550    -3.6140    -2.0560 h1         1 0RM       0.033033
     46 H22          1.9240    -3.6250    -2.9430 h1         1 0RM       0.033033
     47 H23          2.0500    -4.4550    -1.3860 h1         1 0RM       0.033033
@<TRIPOS>BOND
     1    12    11 1
     2     1     2 2
     3    14     5 1
     4    14    10 1
     5    27    26 1
     6    16    15 1
     7    26    25 1
     8    11    10 1
     9    11    13 1
    10     4     5 1
    11     4    15 1
    12     4     3 1
    13     5     6 1
    14     2     3 1
    15     2    18 1
    16    15    17 1
    17    10     7 1
    18    25    18 ar
    19    25    24 ar
    20     8     7 1
    21    18    19 ar
    22     7     6 1
    23     7     9 1
    24    24    23 ar
    25    19    20 1
    26    19    22 ar
    27    20    21 1
    28    23    22 ar
    29     3    28 1
    30     4    29 1
    31     5    30 1
    32     8    31 1
    33     8    32 1
    34     8    33 1
    35     9    34 1
    36     9    35 1
    37     9    36 1
    38    10    37 1
    39    14    38 1
    40    21    39 1
    41    21    40 1
    42    21    41 1
    43    22    42 1
    44    23    43 1
    45    24    44 1
    46    27    45 1
    47    27    46 1
    48    27    47 1
@<TRIPOS>SUBSTRUCTURE
     1 0RM         1 TEMP              0 ****  ****    0 ROOT
