@<TRIPOS>MOLECULE
0RM
   47    48     1     0     0
SMALL
bcc


@<TRIPOS>ATOM
      1 O16          0.0000     0.0000     0.0000 o          1 0RM      -0.676100
      2 C15          1.2160     0.0000     0.0000 c          1 0RM       0.585700
      3 N14          1.8900     0.0000     1.1660 ns         1 0RM      -0.081900
      4 C9           1.1590     0.0010     2.4350 c3         1 0RM      -0.100300
      5 C5           2.0350    -0.6080     3.5310 c3         1 0RM       0.284600
      6 S1           1.1040    -0.7770     5.1100 ss         1 0RM      -0.447200
      7 C2           2.0900    -2.1990     5.7230 c3         1 0RM       0.049100
      8 C10          3.1350    -1.7330     6.7400 c3         1 0RM       0.007400
      9 C6           1.1790    -3.2620     6.3390 c3         1 0RM       0.007400
     10 C3           2.7710    -2.7400     4.4500 c3         1 0RM       0.002500
     11 C11          4.2640    -2.5960     4.5980 c          1 0RM       0.995600
     12 O12          4.8370    -1.6730     4.0700 o          1 0RM      -0.900300
     13 O13          4.9560    -3.4930     5.3190 o          1 0RM      -0.900300
     14 N4           2.3500    -2.0340     3.2370 n7         1 0RM      -0.558200
     15 C7           0.8000     1.4170     2.8080 c          1 0RM       0.982600
     16 O8           1.4620     2.3370     2.3900 o          1 0RM      -0.889300
     17 OG          -0.2540     1.6550     3.6030 o          1 0RM      -0.889300
     18 C17          1.9520    -0.0070    -1.2750 ca         1 0RM      -0.182600
     19 C18          2.3060     1.2020    -1.8940 ca         1 0RM       0.217600
     20 O25          1.9700     2.3830    -1.3190 os         1 0RM      -0.261900
     21 C26          2.3640     3.5740    -2.0060 c3         1 0RM       0.244200
     22 C19          2.9990     1.1830    -3.0930 ca         1 0RM      -0.279000
     23 C20          3.3420    -0.0200    -3.6810 ca         1 0RM      -0.029000
     24 C21          2.9980    -1.2170    -3.0800 ca         1 0RM      -0.279000
     25 C22          2.3100    -1.2220    -1.8780 ca         1 0RM       0.217600
     26 O23          1.9790    -2.3980    -1.2870 os         1 0RM      -0.261900
     27 C24          2.3760    -3.5950    -1.9590 c3         1 0RM       0.244200
     28 H1           2.8910     0.0320     1.1660 hn         1 0RM       0.173500
     29 H2           0.2530    -0.5850     2.3300 h1         1 0RM       0.065700
     30 H3           2.9420    -0.0350     3.6780 h2         1 0RM       0.096700
     31 H4           3.7140    -2.5830     7.0790 hc         1 0RM       0.009367
     32 H5           2.6360    -1.2760     7.5860 hc         1 0RM       0.009367
     33 H6           3.7930    -1.0090     6.2750 hc         1 0RM       0.009367
     34 H7           0.4530    -3.5860     5.6030 hc         1 0RM       0.009367
     35 H8           0.6630    -2.8440     7.1950 hc         1 0RM       0.009367
     36 H9           1.7740    -4.1100     6.6550 hc         1 0RM       0.009367
     37 H10          2.5250    -3.7890     4.3440 h1         1 0RM       0.027700
     38 H12          1.5410    -2.4820     2.8540 hn         1 0RM       0.238800
     39 H15          2.0270     4.4400    -1.4500 h1         1 0RM      -0.009967
     40 H16          3.4430     3.6000    -2.0950 h1         1 0RM      -0.009967
     41 H17          1.9200     3.5840    -2.9940 h1         1 0RM      -0.009967
     42 H18          3.2730     2.1150    -3.5730 ha         1 0RM       0.111000
     43 H19          3.8820    -0.0250    -4.6200 ha         1 0RM       0.079000
     44 H20          3.2730    -2.1540    -3.5480 ha         1 0RM       0.111000
     45 H21          3.4550    -3.6140    -2.0560 h1         1 0RM      -0.009967
     46 H22          1.9240    -3.6250    -2.9430 h1         1 0RM      -0.009967
     47 H23          2.0500    -4.4550    -1.3860 h1         1 0RM      -0.009967
@<TRIPOS>BOND
     1     1     2 2   
     2     2     3 1   
     3     2    18 1   
     4     3     4 1   
     5     3    28 1   
     6     4     5 1   
     7     4    15 1   
     8     4    29 1   
     9     5     6 1   
    10     5    14 1   
    11     5    30 1   
    12     6     7 1   
    13     7     8 1   
    14     7     9 1   
    15     7    10 1   
    16     8    31 1   
    17     8    32 1   
    18     8    33 1   
    19     9    34 1   
    20     9    35 1   
    21     9    36 1   
    22    10    11 1   
    23    10    14 1   
    24    10    37 1   
    25    11    12 1   
    26    11    13 1   
    27    14    38 1   
    28    15    16 1   
    29    15    17 1   
    30    18    19 ar  
    31    18    25 ar  
    32    19    20 1   
    33    19    22 ar  
    34    20    21 1   
    35    21    39 1   
    36    21    40 1   
    37    21    41 1   
    38    22    23 ar  
    39    22    42 1   
    40    23    24 ar  
    41    23    43 1   
    42    24    25 ar  
    43    24    44 1   
    44    25    26 1   
    45    26    27 1   
    46    27    45 1   
    47    27    46 1   
    48    27    47 1   
@<TRIPOS>SUBSTRUCTURE
     1 0RM         1 TEMP              0 ****  ****    0 ROOT
