@<TRIPOS>MOLECULE
0RM
   48    49     1     0     0
SMALL
bcc


@<TRIPOS>ATOM
      1 O16          0.0660    -0.2620    -0.5970 o          1 0RM      -0.451100
      2 C15          1.2150    -0.1920    -0.1740 c          1 0RM       0.600700
      3 N14          1.4630    -0.4220     1.2760 ny         1 0RM      -0.619800
      4 C9           0.3990    -0.0060     2.2380 c3         1 0RM      -0.024500
      5 C5           0.6240    -0.6840     3.6080 c3         1 0RM       0.296600
      6 S1          -0.0670    -2.3850     3.4720 ss         1 0RM      -0.516200
      7 C2           1.4870    -3.2030     3.9650 c3         1 0RM       0.075100
      8 C10          1.3910    -3.6420     5.4040 c3         1 0RM      -0.077600
      9 C6           1.7460    -4.3740     3.0520 c3         1 0RM      -0.077600
     10 C3           2.5500    -2.1000     3.7610 c3         1 0RM       0.011500
     11 C11          3.8690    -2.4020     4.5600 c          1 0RM       0.936600
     12 O12          4.7900    -2.9250     3.8720 o          1 0RM      -0.817300
     13 O13          3.9180    -2.1060     5.7780 o          1 0RM      -0.817300
     14 N4           2.0080    -0.7760     4.0150 n7         1 0RM      -0.806200
     15 C7           0.3620     1.5710     2.3990 c          1 0RM       0.938600
     16 O8           1.1280     2.2310     1.6460 o          1 0RM      -0.794800
     17 OG          -0.4540     2.0060     3.2380 o          1 0RM      -0.794800
     18 C17          2.4270     0.0630    -0.9780 ca         1 0RM      -0.234600
     19 C18          3.6590    -0.5970    -0.7400 ca         1 0RM       0.202600
     20 O25          3.6870    -1.5100     0.2880 os         1 0RM      -0.359400
     21 C26          4.9710    -1.8930     0.7930 c3         1 0RM       0.095200
     22 C19          4.7730    -0.3470    -1.5540 ca         1 0RM      -0.211000
     23 C20          4.6760     0.5640    -2.6010 ca         1 0RM      -0.048000
     24 C21          3.4850     1.2370    -2.8490 ca         1 0RM      -0.211000
     25 C22          2.3650     0.9860    -2.0420 ca         1 0RM       0.202600
     26 O23          1.1810     1.6050    -2.3950 os         1 0RM      -0.359400
     27 C24          0.7950     2.6840    -1.5300 c3         1 0RM       0.095200
     28 H1           2.3120     0.1090     1.5380 hn         1 0RM       0.472800
     29 H2          -0.5990    -0.3290     1.8280 hx         1 0RM       0.106700
     30 H3          -0.0010    -0.0990     4.3390 h2         1 0RM       0.130700
     31 H4           1.2770    -2.7570     6.0760 hc         1 0RM       0.045200
     32 H5           2.3350    -4.1680     5.6990 hc         1 0RM       0.045200
     33 H6           0.5240    -4.3300     5.5490 hc         1 0RM       0.045200
     34 H7           1.0590    -5.2210     3.2910 hc         1 0RM       0.045200
     35 H8           2.8060    -4.7130     3.1880 hc         1 0RM       0.045200
     36 H9           1.5990    -4.0860     1.9830 hc         1 0RM       0.045200
     37 H10          2.8690    -2.1420     2.6750 h1         1 0RM       0.030700
     38 H12          2.1420    -0.5170     4.9770 hn         1 0RM       0.411800
     39 H15          5.6150    -0.9960     0.9570 h1         1 0RM       0.071200
     40 H16          5.4510    -2.6050     0.0800 h1         1 0RM       0.071200
     41 H17          4.7350    -2.3920     1.7820 h1         1 0RM       0.071200
     42 H18          5.7220    -0.8700    -1.3630 ha         1 0RM       0.152000
     43 H19          5.5560     0.7570    -3.2350 ha         1 0RM       0.136000
     44 H20          3.4000     1.9620    -3.6700 ha         1 0RM       0.152000
     45 H21          0.7810     2.3630    -0.4570 h1         1 0RM       0.071200
     46 H22         -0.2340     2.9380    -1.8860 h1         1 0RM       0.071200
     47 H23          1.4930     3.5420    -1.6780 h1         1 0RM       0.071200
     48 H142         1.6470    -1.4310     1.3960 hn         1 0RM       0.472800
@<TRIPOS>BOND
     1     1     2 2   
     2     2     3 1   
     3     2    18 1   
     4     3     4 1   
     5     3    28 1   
     6     3    48 1   
     7     4     5 1   
     8     4    15 1   
     9     4    29 1   
    10     5     6 1   
    11     5    14 1   
    12     5    30 1   
    13     6     7 1   
    14     7     8 1   
    15     7     9 1   
    16     7    10 1   
    17     8    31 1   
    18     8    32 1   
    19     8    33 1   
    20     9    34 1   
    21     9    35 1   
    22     9    36 1   
    23    10    11 1   
    24    10    14 1   
    25    10    37 1   
    26    11    12 1   
    27    11    13 1   
    28    14    38 1   
    29    15    16 1   
    30    15    17 1   
    31    18    19 ar  
    32    18    25 ar  
    33    19    20 1   
    34    19    22 ar  
    35    20    21 1   
    36    21    39 1   
    37    21    40 1   
    38    21    41 1   
    39    22    23 ar  
    40    22    42 1   
    41    23    24 ar  
    42    23    43 1   
    43    24    25 ar  
    44    24    44 1   
    45    25    26 1   
    46    26    27 1   
    47    27    45 1   
    48    27    46 1   
    49    27    47 1   
@<TRIPOS>SUBSTRUCTURE
     1 0RM         1 TEMP              0 ****  ****    0 ROOT
