@<TRIPOS>MOLECULE
0RN
   25    26     1     0     0
SMALL
bcc


@<TRIPOS>ATOM
      1 CG2          0.0000     0.0000     0.0000 c3         1 0RN       0.032400
      2 CB           1.5300     0.0000     0.0000 c3         1 0RN       0.048800
      3 CG1          2.0820     1.1740    -0.8100 c3         1 0RN       0.032400
      4 SAO          2.1990     0.0000     1.7160 s6         1 0RN       0.732000
      5 OAE          3.5680     0.3780     1.7000 o          1 0RN      -0.591800
      6 OAF          1.2850     0.6530     2.5880 o          1 0RN      -0.591800
      7 CAK          2.0570    -1.8150     1.9150 cy         1 0RN      -0.007500
      8 CAH          3.3840    -2.5220     2.1730 cy         1 0RN      -0.143400
      9 CAJ          3.1010    -3.1070     0.8140 c          1 0RN       0.630500
     10 OAD          3.6670    -3.9640     0.1700 o          1 0RN      -0.595500
     11 N            2.0060    -2.3580     0.5520 nj         1 0RN      -0.090800
     12 CA           2.0920    -1.3530    -0.5110 c3         1 0RN      -0.093300
     13 C            1.2900    -1.8120    -1.7020 c          1 0RN       0.983600
     14 O            0.4300    -2.6490    -1.5640 o          1 0RN      -0.869300
     15 OXT          1.5310    -1.2910    -2.9150 o          1 0RN      -0.869300
     16 H1          -0.3610     0.8390     0.5820 hc         1 0RN       0.019700
     17 H2          -0.3610     0.0850    -1.0180 hc         1 0RN       0.019700
     18 H3          -0.3610    -0.9240     0.4360 hc         1 0RN       0.019700
     19 H4           3.1490     1.0490    -0.9450 hc         1 0RN       0.019700
     20 H5           1.8900     2.0990    -0.2810 hc         1 0RN       0.019700
     21 H6           1.5970     1.2030    -1.7780 hc         1 0RN       0.019700
     22 H7           1.2420    -2.1490     2.5460 h2         1 0RN       0.093700
     23 H8           4.1970    -1.8090     2.1020 hc         1 0RN       0.068200
     24 H9           3.2510    -3.2830     2.9320 hc         1 0RN       0.068200
     25 H10          3.1290    -1.2240    -0.7980 h1         1 0RN       0.045700
@<TRIPOS>BOND
     1     1     2 1   
     2     1    16 1   
     3     1    17 1   
     4     1    18 1   
     5     2     3 1   
     6     2     4 1   
     7     2    12 1   
     8     3    19 1   
     9     3    20 1   
    10     3    21 1   
    11     4     5 2   
    12     4     6 2   
    13     4     7 1   
    14     7     8 1   
    15     7    11 1   
    16     7    22 1   
    17     8     9 1   
    18     8    23 1   
    19     8    24 1   
    20     9    10 2   
    21     9    11 1   
    22    11    12 1   
    23    12    13 1   
    24    12    25 1   
    25    13    14 1   
    26    13    15 1   
@<TRIPOS>SUBSTRUCTURE
     1 0RN         1 TEMP              0 ****  ****    0 ROOT
