@<TRIPOS>MOLECULE
0RN
   25    26     1     0     0
SMALL
bcc


@<TRIPOS>ATOM
      1 CG2          0.2770     0.4370    -0.5180 c3         1 0RN      -0.073100
      2 CB           1.5710    -0.1060     0.0510 c3         1 0RN      -0.211200
      3 CG1          2.7070     0.8350    -0.3000 c3         1 0RN      -0.073100
      4 SAO          1.4420    -0.2750     1.7900 s6         1 0RN       1.222000
      5 OAE          2.3600     0.5850     2.4430 o          1 0RN      -0.653800
      6 OAF          0.1440    -0.2080     2.3140 o          1 0RN      -0.653800
      7 CAK          2.0750    -1.9040     1.8400 cy         1 0RN      -0.147500
      8 CAH          3.5440    -2.1100     2.2850 cy         1 0RN      -0.160400
      9 CAJ          3.8360    -2.4240     0.8070 c          1 0RN       0.662500
     10 OAD          4.8510    -2.6900     0.1730 o          1 0RN      -0.578500
     11 N            2.4430    -2.3690     0.4690 nj         1 0RN      -0.309800
     12 CA           1.8760    -1.5150    -0.5580 c3         1 0RN      -0.067300
     13 C            0.5650    -2.1490    -1.1880 c          1 0RN       0.942600
     14 O           -0.3510    -2.5160    -0.4120 o          1 0RN      -0.808300
     15 OXT          0.5580    -2.1970    -2.4430 o          1 0RN      -0.808300
     16 H1           0.2780     0.3330    -1.6310 hc         1 0RN       0.052700
     17 H2          -0.5960    -0.1450    -0.1220 hc         1 0RN       0.052700
     18 H3           0.1600     1.5160    -0.2520 hc         1 0RN       0.052700
     19 H4           2.7440     0.9890    -1.4050 hc         1 0RN       0.052700
     20 H5           2.5640     1.8270     0.1950 hc         1 0RN       0.052700
     21 H6           3.6850     0.4090     0.0330 hc         1 0RN       0.052700
     22 H7           1.3480    -2.6190     2.3010 h2         1 0RN       0.146700
     23 H8           4.0460    -1.1910     2.6620 hc         1 0RN       0.085200
     24 H9           3.7060    -2.9590     2.9790 hc         1 0RN       0.085200
     25 H10          2.6160    -1.4130    -1.4010 h1         1 0RN       0.087700
@<TRIPOS>BOND
     1     1     2 1   
     2     1    16 1   
     3     1    17 1   
     4     1    18 1   
     5     2     3 1   
     6     2     4 1   
     7     2    12 1   
     8     3    19 1   
     9     3    20 1   
    10     3    21 1   
    11     4     5 2   
    12     4     6 2   
    13     4     7 1   
    14     7     8 1   
    15     7    11 1   
    16     7    22 1   
    17     8     9 1   
    18     8    23 1   
    19     8    24 1   
    20     9    10 2   
    21     9    11 1   
    22    11    12 1   
    23    12    13 1   
    24    12    25 1   
    25    13    14 1   
    26    13    15 1   
@<TRIPOS>SUBSTRUCTURE
     1 0RN         1 TEMP              0 ****  ****    0 ROOT
