@<TRIPOS>MOLECULE
molecule
   50    53     1     0     0
SMALL
bcc


@<TRIPOS>ATOM
      1 CAB          0.0000     0.0000     0.0000 c3         1 0RO      -0.072100
      2 CAY          1.5300     0.0000     0.0000 c3         1 0RO       0.012100
      3 CAC          2.0680     1.2010    -0.7790 c3         1 0RO      -0.072100
      4 SAP          2.1720     0.0000     1.7050 ss         1 0RO      -0.358300
      5 CAL          2.0720    -1.3150    -0.5800 c3         1 0RO       0.146800
      6 NAM          2.8580    -2.0350     0.3960 n2         1 0RO      -0.731900
      7 CAR          3.0190    -1.5470     1.5730 c2         1 0RO       0.722100
      8 NAW          3.7430    -2.1390     2.5820 nh         1 0RO      -0.775600
      9 CAI          3.8630    -1.4990     3.9010 c3         1 0RO       0.240300
     10 CAK          5.3470    -1.4370     4.2790 c3         1 0RO       0.147800
     11 CAH          4.4120    -3.4310     2.3720 c3         1 0RO       0.240300
     12 CAJ          5.8750    -3.2980     2.8060 c3         1 0RO       0.147800
     13 NAX          5.9290    -2.7830     4.1850 nh         1 0RO      -0.696300
     14 C6           7.2230    -2.7980     4.6730 ca         1 0RO       0.690200
     15 N1           7.7760    -1.6920     5.1480 nb         1 0RO      -0.801000
     16 C2           9.0110    -1.6920     5.6160 ca         1 0RO       0.713900
     17 N3           9.7510    -2.7760     5.6380 nb         1 0RO      -0.732000
     18 C4           9.2800    -3.9420     5.1810 ca         1 0RO       0.526600
     19 SAQ         10.0210    -5.5330     5.0810 ss         1 0RO      -0.135900
     20 C5           7.9760    -4.0000     4.6790 ca         1 0RO      -0.340400
     21 CAE          7.6240    -5.3350     4.2340 cc         1 0RO      -0.117200
     22 CAS          8.5800    -6.2340     4.3670 cd         1 0RO      -0.046600
     23 CAG          8.4450    -7.6820     3.9730 c3         1 0RO      -0.010200
     24 CAF          8.8810    -7.8570     2.5180 c3         1 0RO      -0.082400
     25 CAA          8.7440    -9.3280     2.1180 c3         1 0RO      -0.093100
     26 H1          -0.3610    -0.0510    -1.0200 hc         1 0RO       0.046533
     27 H2          -0.3610     0.9090     0.4660 hc         1 0RO       0.046533
     28 H3          -0.3610    -0.8580     0.5540 hc         1 0RO       0.046533
     29 H4           1.6870     1.1750    -1.7920 hc         1 0RO       0.046533
     30 H5           3.1500     1.1630    -0.7990 hc         1 0RO       0.046533
     31 H6           1.7480     2.1170    -0.2970 hc         1 0RO       0.046533
     32 H7           2.6940    -1.0930    -1.4390 h1         1 0RO       0.067700
     33 H8           1.2390    -1.9350    -0.8900 h1         1 0RO       0.067700
     34 H13          3.4580    -0.4950     3.8560 h1         1 0RO       0.067450
     35 H14          3.3250    -2.0830     4.6380 h1         1 0RO       0.067450
     36 H15          5.4450    -1.0720     5.2940 h1         1 0RO       0.064700
     37 H16          5.8650    -0.7730     3.5970 h1         1 0RO       0.064700
     38 H17          3.9240    -4.1940     2.9670 h1         1 0RO       0.067450
     39 H18          4.3680    -3.6970     1.3220 h1         1 0RO       0.067450
     40 H19          6.3870    -2.6100     2.1440 h1         1 0RO       0.064700
     41 H20          6.3530    -4.2700     2.7660 h1         1 0RO       0.064700
     42 H21          9.4270    -0.7660     5.9960 h5         1 0RO       0.063100
     43 H22          6.6550    -5.5720     3.8130 ha         1 0RO       0.157000
     44 H23          7.4120    -7.9900     4.0810 hc         1 0RO       0.057200
     45 H24          9.0720    -8.2900     4.6140 hc         1 0RO       0.057200
     46 H25          9.9140    -7.5480     2.4110 hc         1 0RO       0.046700
     47 H26          8.2540    -7.2490     1.8770 hc         1 0RO       0.046700
     48 H27          9.3620    -9.9370     2.7660 hc         1 0RO       0.036033
     49 H28          7.7090    -9.6330     2.2140 hc         1 0RO       0.036033
     50 H29          9.0640    -9.4540     1.0900 hc         1 0RO       0.036033
@<TRIPOS>BOND
     1     9    10 1
     2     9     8 1
     3    10    13 1
     4     6     5 1
     5     6     7 2
     6    25    24 1
     7    15    16 ar
     8    15    14 ar
     9    13    14 1
    10    13    12 1
    11    16    17 ar
    12     8     7 1
    13     8    11 1
    14    14    20 ar
    15     5     2 1
    16     7     4 1
    17    12    11 1
    18    17    18 ar
    19    20    18 ar
    20    20    21 1
    21    24    23 1
    22    18    19 1
    23    21    22 2
    24     3     2 1
    25    22    19 1
    26    22    23 1
    27     2     4 1
    28     2     1 1
    29     1    26 1
    30     1    27 1
    31     1    28 1
    32     3    29 1
    33     3    30 1
    34     3    31 1
    35     5    32 1
    36     5    33 1
    37     9    34 1
    38     9    35 1
    39    10    36 1
    40    10    37 1
    41    11    38 1
    42    11    39 1
    43    12    40 1
    44    12    41 1
    45    16    42 1
    46    21    43 1
    47    23    44 1
    48    23    45 1
    49    24    46 1
    50    24    47 1
    51    25    48 1
    52    25    49 1
    53    25    50 1
@<TRIPOS>SUBSTRUCTURE
     1 0RO         1 TEMP              0 ****  ****    0 ROOT
