@<TRIPOS>MOLECULE
0RO
   50    53     1     0     0
SMALL
bcc


@<TRIPOS>ATOM
      1 CAB          0.0000     0.0000     0.0000 c3         1 0RO       0.023900
      2 CAY          1.5300     0.0000     0.0000 c3         1 0RO       0.031100
      3 CAC          2.0680     1.2010    -0.7790 c3         1 0RO       0.023900
      4 SAP          2.1720     0.0000     1.7050 ss         1 0RO      -0.381300
      5 CAL          2.0720    -1.3150    -0.5800 c3         1 0RO       0.172800
      6 NAM          2.8580    -2.0350     0.3960 n2         1 0RO      -0.659900
      7 CAR          3.0190    -1.5470     1.5730 c2         1 0RO       0.563100
      8 NAW          3.7430    -2.1390     2.5820 nh         1 0RO      -0.403600
      9 CAI          3.8630    -1.4990     3.9010 c3         1 0RO       0.167800
     10 CAK          5.3470    -1.4370     4.2790 c3         1 0RO       0.111800
     11 CAH          4.4120    -3.4310     2.3720 c3         1 0RO       0.167800
     12 CAJ          5.8750    -3.2980     2.8060 c3         1 0RO       0.111800
     13 NAX          5.9290    -2.7830     4.1850 nh         1 0RO      -0.453300
     14 C6           7.2230    -2.7980     4.6730 ca         1 0RO       0.565200
     15 N1           7.7760    -1.6920     5.1480 nb         1 0RO      -0.687000
     16 C2           9.0110    -1.6920     5.6160 ca         1 0RO       0.661900
     17 N3           9.7510    -2.7760     5.6380 nb         1 0RO      -0.605000
     18 C4           9.2800    -3.9420     5.1810 ca         1 0RO       0.533600
     19 SAQ         10.0210    -5.5330     5.0810 ss         1 0RO      -0.274900
     20 C5           7.9760    -4.0000     4.6790 ca         1 0RO      -0.334400
     21 CAE          7.6240    -5.3350     4.2340 cc         1 0RO      -0.090200
     22 CAS          8.5800    -6.2340     4.3670 cd         1 0RO       0.005400
     23 CAG          8.4450    -7.6820     3.9730 c3         1 0RO       0.061800
     24 CAF          8.8810    -7.8570     2.5180 c3         1 0RO      -0.030400
     25 CAA          8.7440    -9.3280     2.1180 c3         1 0RO       0.006900
     26 H1          -0.3610    -0.0510    -1.0200 hc         1 0RO       0.015367
     27 H2          -0.3610     0.9090     0.4660 hc         1 0RO       0.015367
     28 H3          -0.3610    -0.8580     0.5540 hc         1 0RO       0.015367
     29 H4           1.6870     1.1750    -1.7920 hc         1 0RO       0.015367
     30 H5           3.1500     1.1630    -0.7990 hc         1 0RO       0.015367
     31 H6           1.7480     2.1170    -0.2970 hc         1 0RO       0.015367
     32 H7           2.6940    -1.0930    -1.4390 h1         1 0RO       0.034700
     33 H8           1.2390    -1.9350    -0.8900 h1         1 0RO       0.034700
     34 H13          3.4580    -0.4950     3.8560 h1         1 0RO       0.039700
     35 H14          3.3250    -2.0830     4.6380 h1         1 0RO       0.039700
     36 H15          5.4450    -1.0720     5.2940 h1         1 0RO       0.038950
     37 H16          5.8650    -0.7730     3.5970 h1         1 0RO       0.038950
     38 H17          3.9240    -4.1940     2.9670 h1         1 0RO       0.039700
     39 H18          4.3680    -3.6970     1.3220 h1         1 0RO       0.039700
     40 H19          6.3870    -2.6100     2.1440 h1         1 0RO       0.038950
     41 H20          6.3530    -4.2700     2.7660 h1         1 0RO       0.038950
     42 H21          9.4270    -0.7660     5.9960 h5         1 0RO       0.002100
     43 H22          6.6550    -5.5720     3.8130 ha         1 0RO       0.137000
     44 H23          7.4120    -7.9900     4.0810 hc         1 0RO       0.026200
     45 H24          9.0720    -8.2900     4.6140 hc         1 0RO       0.026200
     46 H25          9.9140    -7.5480     2.4110 hc         1 0RO       0.018700
     47 H26          8.2540    -7.2490     1.8770 hc         1 0RO       0.018700
     48 H27          9.3620    -9.9370     2.7660 hc         1 0RO       0.002367
     49 H28          7.7090    -9.6330     2.2140 hc         1 0RO       0.002367
     50 H29          9.0640    -9.4540     1.0900 hc         1 0RO       0.002367
@<TRIPOS>BOND
     1     1     2 1   
     2     1    26 1   
     3     1    27 1   
     4     1    28 1   
     5     2     3 1   
     6     2     4 1   
     7     2     5 1   
     8     3    29 1   
     9     3    30 1   
    10     3    31 1   
    11     4     7 1   
    12     5     6 1   
    13     5    32 1   
    14     5    33 1   
    15     6     7 2   
    16     7     8 1   
    17     8     9 1   
    18     8    11 1   
    19     9    10 1   
    20     9    34 1   
    21     9    35 1   
    22    10    13 1   
    23    10    36 1   
    24    10    37 1   
    25    11    12 1   
    26    11    38 1   
    27    11    39 1   
    28    12    13 1   
    29    12    40 1   
    30    12    41 1   
    31    13    14 1   
    32    14    15 ar  
    33    14    20 ar  
    34    15    16 ar  
    35    16    17 ar  
    36    16    42 1   
    37    17    18 ar  
    38    18    19 1   
    39    18    20 ar  
    40    19    22 1   
    41    20    21 1   
    42    21    22 2   
    43    21    43 1   
    44    22    23 1   
    45    23    24 1   
    46    23    44 1   
    47    23    45 1   
    48    24    25 1   
    49    24    46 1   
    50    24    47 1   
    51    25    48 1   
    52    25    49 1   
    53    25    50 1   
@<TRIPOS>SUBSTRUCTURE
     1 0RO         1 TEMP              0 ****  ****    0 ROOT
