@<TRIPOS>MOLECULE
0RO
   50    53     1     0     0
SMALL
bcc


@<TRIPOS>ATOM
      1 CAB          0.1450    -0.1770     0.0770 c3         1 0RO      -0.083100
      2 CAY          1.6230     0.0960    -0.0500 c3         1 0RO       0.019100
      3 CAC          1.8730     1.3420    -0.8630 c3         1 0RO      -0.083100
      4 SAP          2.3240     0.3210     1.6090 ss         1 0RO      -0.334300
      5 CAL          2.3730    -1.1260    -0.6480 c3         1 0RO       0.113800
      6 NAM          3.3440    -1.6930     0.2510 n2         1 0RO      -0.655900
      7 CAR          3.4330    -1.0580     1.3940 c2         1 0RO       0.661100
      8 NAW          4.3630    -1.2900     2.4120 nh         1 0RO      -0.701600
      9 CAI          5.1370    -2.5170     2.4180 c3         1 0RO       0.176800
     10 CAK          5.0460    -3.3050     3.7410 c3         1 0RO       0.181800
     11 CAH          3.9940    -0.7890     3.7250 c3         1 0RO       0.176800
     12 CAJ          5.0620    -1.0980     4.7930 c3         1 0RO       0.181800
     13 NAX          5.4160    -2.5020     4.8970 nh         1 0RO      -0.747300
     14 C6           5.3220    -3.1040     6.1680 ca         1 0RO       0.706200
     15 N1           4.7800    -4.3500     6.3090 nb         1 0RO      -0.765000
     16 C2           4.7840    -4.9000     7.5580 ca         1 0RO       0.664900
     17 N3           5.2450    -4.3690     8.7070 nb         1 0RO      -0.686000
     18 C4           5.8000    -3.1350     8.5740 ca         1 0RO       0.429600
     19 SAQ          6.5040    -2.2170     9.8070 ss         1 0RO      -0.006900
     20 C5           5.8780    -2.4430     7.3200 ca         1 0RO      -0.334400
     21 CAE          6.5590    -1.1920     7.4640 cc         1 0RO      -0.104200
     22 CAS          6.9420    -0.9580     8.7610 cd         1 0RO      -0.113600
     23 CAG          7.6520     0.2360     9.2560 c3         1 0RO      -0.014200
     24 CAF          9.1640     0.1200     9.1470 c3         1 0RO      -0.075400
     25 CAA          9.6520     0.2710     7.7300 c3         1 0RO      -0.096100
     26 H1          -0.3020    -0.3370    -0.9360 hc         1 0RO       0.047867
     27 H2          -0.0380    -1.0900     0.6940 hc         1 0RO       0.047867
     28 H3          -0.3730     0.6880     0.5580 hc         1 0RO       0.047867
     29 H4           2.9670     1.5550    -0.9340 hc         1 0RO       0.047867
     30 H5           1.4670     1.2120    -1.8960 hc         1 0RO       0.047867
     31 H6           1.3690     2.2230    -0.3950 hc         1 0RO       0.047867
     32 H7           1.6350    -1.9330    -0.9160 h1         1 0RO       0.072200
     33 H8           2.9060    -0.8200    -1.5920 h1         1 0RO       0.072200
     34 H13          4.8240    -3.2200     1.5960 h1         1 0RO       0.068700
     35 H14          6.2090    -2.2190     2.2300 h1         1 0RO       0.068700
     36 H15          4.0020    -3.7220     3.8420 h1         1 0RO       0.065450
     37 H16          5.7630    -4.1710     3.6810 h1         1 0RO       0.065450
     38 H17          3.8890     0.3340     3.6530 h1         1 0RO       0.068700
     39 H18          3.0020    -1.2120     4.0600 h1         1 0RO       0.068700
     40 H19          4.6730    -0.7000     5.7730 h1         1 0RO       0.065450
     41 H20          6.0100    -0.5410     4.5330 h1         1 0RO       0.065450
     42 H21          4.3340    -5.9130     7.6260 h5         1 0RO       0.054100
     43 H22          6.7690    -0.5200     6.6280 ha         1 0RO       0.160000
     44 H23          7.3090     1.1380     8.6790 hc         1 0RO       0.053200
     45 H24          7.3800     0.4090    10.3340 hc         1 0RO       0.053200
     46 H25          9.6260     0.9190     9.7860 hc         1 0RO       0.044700
     47 H26          9.4950    -0.8690     9.5580 hc         1 0RO       0.044700
     48 H27         10.7570     0.1210     7.6840 hc         1 0RO       0.036367
     49 H28          9.4160     1.2890     7.3370 hc         1 0RO       0.036367
     50 H29          9.1630    -0.4840     7.0660 hc         1 0RO       0.036367
@<TRIPOS>BOND
     1     1     2 1   
     2     1    26 1   
     3     1    27 1   
     4     1    28 1   
     5     2     3 1   
     6     2     4 1   
     7     2     5 1   
     8     3    29 1   
     9     3    30 1   
    10     3    31 1   
    11     4     7 1   
    12     5     6 1   
    13     5    32 1   
    14     5    33 1   
    15     6     7 2   
    16     7     8 1   
    17     8     9 1   
    18     8    11 1   
    19     9    10 1   
    20     9    34 1   
    21     9    35 1   
    22    10    13 1   
    23    10    36 1   
    24    10    37 1   
    25    11    12 1   
    26    11    38 1   
    27    11    39 1   
    28    12    13 1   
    29    12    40 1   
    30    12    41 1   
    31    13    14 1   
    32    14    15 ar  
    33    14    20 ar  
    34    15    16 ar  
    35    16    17 ar  
    36    16    42 1   
    37    17    18 ar  
    38    18    19 1   
    39    18    20 ar  
    40    19    22 1   
    41    20    21 1   
    42    21    22 2   
    43    21    43 1   
    44    22    23 1   
    45    23    24 1   
    46    23    44 1   
    47    23    45 1   
    48    24    25 1   
    49    24    46 1   
    50    24    47 1   
    51    25    48 1   
    52    25    49 1   
    53    25    50 1   
@<TRIPOS>SUBSTRUCTURE
     1 0RO         1 TEMP              0 ****  ****    0 ROOT
