@<TRIPOS>MOLECULE
0RP
   67    69     1     0     0
SMALL
bcc


@<TRIPOS>ATOM
      1 C1          -0.5810     0.1110     0.3960 c3         1 0RP      -0.100100
      2 C2           0.9190     0.2360     0.3850 c3         1 0RP      -0.090400
      3 C3           1.5440    -0.0250     1.7700 c3         1 0RP       0.121700
      4 C4           3.0120     0.4430     1.7020 c3         1 0RP      -0.119400
      5 C5           3.9120    -0.3530     2.6580 c3         1 0RP       0.202800
      6 C6           3.8050    -1.8100     2.3200 ca         1 0RP      -0.189300
      7 C7           4.8750    -2.6980     2.2650 ca         1 0RP      -0.075000
      8 C8           4.6680    -4.0420     1.9540 ca         1 0RP      -0.178300
      9 C9           3.3810    -4.5190     1.7020 ca         1 0RP      -0.030000
     10 C10          2.2950    -3.6540     1.7730 ca         1 0RP      -0.128000
     11 C11          2.4790    -2.2930     2.0980 ca         1 0RP       0.139600
     12 N1           1.4000    -1.4040     2.2270 n          1 0RP      -0.388000
     13 C12          0.2020    -1.7420     2.8800 c          1 0RP       0.756100
     14 O1          -0.6790    -0.9280     3.1890 o          1 0RP      -0.545000
     15 O2           0.0640    -3.0650     3.2050 os         1 0RP      -0.433900
     16 C13         -1.1710    -3.4320     3.8640 c3         1 0RP       0.148400
     17 C14         -2.2930    -3.5630     2.8670 c3         1 0RP      -0.133100
     18 C15          5.8770    -4.9710     1.8900 c3         1 0RP       0.692200
     19 F1           6.6720    -4.7610     0.7890 f          1 0RP      -0.226967
     20 F2           5.5750    -6.3060     1.8580 f          1 0RP      -0.226967
     21 F3           6.7370    -4.8290     2.9530 f          1 0RP      -0.226967
     22 N2           5.3160     0.2440     2.6640 nx         1 0RP      -0.557200
     23 C16          6.0990     0.0040     1.3980 c3         1 0RP       0.171100
     24 C17          6.7420     1.2570     0.9030 ca         1 0RP      -0.188300
     25 C18          5.9770     2.2140     0.2260 ca         1 0RP      -0.034000
     26 C19          6.5890     3.3630    -0.2750 ca         1 0RP      -0.166800
     27 C20          7.9630     3.5660    -0.1170 ca         1 0RP       0.008000
     28 C21          8.7190     2.6020     0.5550 ca         1 0RP      -0.166800
     29 C22          8.1180     1.4500     1.0650 ca         1 0RP      -0.034000
     30 C23         10.2280     2.7960     0.7280 c3         1 0RP       0.692200
     31 F4          10.6290     4.1060     0.7090 f          1 0RP      -0.218300
     32 F5          10.7100     2.2950     1.9120 f          1 0RP      -0.218300
     33 F6          10.9740     2.1790    -0.2430 f          1 0RP      -0.218300
     34 C24          5.7400     4.3970    -1.0190 c3         1 0RP       0.692200
     35 F7           5.5720     4.1140    -2.3500 f          1 0RP      -0.218300
     36 F8           4.4630     4.5090    -0.5240 f          1 0RP      -0.218300
     37 F9           6.2470     5.6690    -0.9830 f          1 0RP      -0.218300
     38 C25          6.0240    -0.1420     3.9280 c          1 0RP       0.610100
     39 O3           5.6130     0.2250     5.0230 o          1 0RP      -0.429000
     40 O4           7.1360    -0.8870     3.7500 os         1 0RP      -0.398900
     41 C26          7.8180    -1.2880     4.9670 c3         1 0RP       0.129700
     42 H4          -1.0270     0.7330     1.2110 hc         1 0RP       0.053367
     43 H5          -0.9960     0.4520    -0.5840 hc         1 0RP       0.053367
     44 H3          -0.8950    -0.9480     0.5640 hc         1 0RP       0.053367
     45 H6           1.3570    -0.4650    -0.3740 hc         1 0RP       0.053700
     46 H7           1.2020     1.2810     0.0870 hc         1 0RP       0.053700
     47 H1           0.9940     0.6230     2.5240 h1         1 0RP       0.103700
     48 H9           3.0230     1.5360     1.9590 hc         1 0RP       0.073200
     49 H8           3.3840     0.3280     0.6490 hc         1 0RP       0.073200
     50 H2           3.5360    -0.2080     3.7240 hx         1 0RP       0.131700
     51 H10          5.9070    -2.3800     2.4840 ha         1 0RP       0.142000
     52 H11          3.2250    -5.5830     1.4490 ha         1 0RP       0.179000
     53 H12          1.2780    -4.0460     1.5930 ha         1 0RP       0.186000
     54 H14         -1.4120    -2.6790     4.6590 h1         1 0RP       0.077700
     55 H13         -0.8960    -4.4200     4.3240 h1         1 0RP       0.077700
     56 H17         -2.0280    -4.2920     2.0640 hc         1 0RP       0.059367
     57 H16         -3.2110    -3.9230     3.3910 hc         1 0RP       0.059367
     58 H15         -2.5110    -2.5730     2.3960 hc         1 0RP       0.059367
     59 H19          6.8840    -0.7880     1.5830 hx         1 0RP       0.128200
     60 H18          5.3800    -0.4020     0.6270 hx         1 0RP       0.128200
     61 H20          4.8930     2.0660     0.0770 ha         1 0RP       0.163500
     62 H21          8.4430     4.4820    -0.5120 ha         1 0RP       0.197000
     63 H22          8.7360     0.6980     1.5870 ha         1 0RP       0.163500
     64 H24          8.1620    -0.3780     5.5140 h1         1 0RP       0.091367
     65 H25          8.6710    -1.8910     4.5620 h1         1 0RP       0.091367
     66 H23          7.1280    -1.9010     5.5930 h1         1 0RP       0.091367
     67 H211         5.1730     1.2680     2.7470 hn         1 0RP       0.469800
@<TRIPOS>BOND
     1     1     2 1   
     2     1    42 1   
     3     1    43 1   
     4     1    44 1   
     5     2     3 1   
     6     2    45 1   
     7     2    46 1   
     8     3     4 1   
     9     3    12 1   
    10     3    47 1   
    11     4     5 1   
    12     4    48 1   
    13     4    49 1   
    14     5     6 1   
    15     5    22 1   
    16     5    50 1   
    17     6     7 ar  
    18     6    11 ar  
    19     7     8 ar  
    20     7    51 1   
    21     8     9 ar  
    22     8    18 1   
    23     9    10 ar  
    24     9    52 1   
    25    10    11 ar  
    26    10    53 1   
    27    11    12 1   
    28    12    13 1   
    29    13    14 2   
    30    13    15 1   
    31    15    16 1   
    32    16    17 1   
    33    16    54 1   
    34    16    55 1   
    35    17    56 1   
    36    17    57 1   
    37    17    58 1   
    38    18    19 1   
    39    18    20 1   
    40    18    21 1   
    41    22    23 1   
    42    22    38 1   
    43    22    67 1   
    44    23    24 1   
    45    23    59 1   
    46    23    60 1   
    47    24    25 ar  
    48    24    29 ar  
    49    25    26 ar  
    50    25    61 1   
    51    26    27 ar  
    52    26    34 1   
    53    27    28 ar  
    54    27    62 1   
    55    28    29 ar  
    56    28    30 1   
    57    29    63 1   
    58    30    31 1   
    59    30    32 1   
    60    30    33 1   
    61    34    35 1   
    62    34    36 1   
    63    34    37 1   
    64    38    39 2   
    65    38    40 1   
    66    40    41 1   
    67    41    64 1   
    68    41    65 1   
    69    41    66 1   
@<TRIPOS>SUBSTRUCTURE
     1 0RP         1 TEMP              0 ****  ****    0 ROOT
