@<TRIPOS>MOLECULE
molecule
   66    68     1     0     0
SMALL
bcc


@<TRIPOS>ATOM
      1 C1           0.0000     0.0000     0.0000 c3         1 0RP      -0.101100
      2 C2           1.5300     0.0000     0.0000 c3         1 0RP      -0.088400
      3 C3           2.0400     0.0000     1.4430 c3         1 0RP       0.134700
      4 C4           1.4810     1.2180     2.1900 c3         1 0RP      -0.119400
      5 C5           1.9450     1.1600     3.6450 c3         1 0RP       0.172000
      6 C6           3.4380     0.9680     3.7150 ca         1 0RP      -0.145300
      7 C7           4.1050     1.3160     4.8780 ca         1 0RP      -0.049000
      8 C8           5.4730     1.1500     4.9740 ca         1 0RP      -0.206300
      9 C9           6.1850     0.6340     3.9070 ca         1 0RP      -0.054000
     10 C10          5.5290     0.2860     2.7440 ca         1 0RP      -0.183000
     11 C11          4.1520     0.4530     2.6450 ca         1 0RP       0.114600
     12 N1           3.5060     0.1010     1.4520 n          1 0RP      -0.361000
     13 C12          4.2170    -0.1390     0.3320 c          1 0RP       0.759100
     14 O1           3.6440    -0.4000    -0.7070 o          1 0RP      -0.594000
     15 O2           5.5620    -0.0920     0.3660 os         1 0RP      -0.428900
     16 C13          6.2630    -0.3610    -0.8770 c3         1 0RP       0.146400
     17 C14          7.7720    -0.2620    -0.6440 c3         1 0RP      -0.099100
     18 C15          6.1890     1.5310     6.2430 c3         1 0RP       0.674200
     19 F1           5.9950     2.8940     6.4970 f          1 0RP      -0.222967
     20 F2           5.6810     0.7810     7.3090 f          1 0RP      -0.222967
     21 F3           7.5570     1.2740     6.1020 f          1 0RP      -0.222967
     22 N2           1.5870     2.4120     4.3180 n          1 0RP      -0.479800
     23 C16          0.7000     2.3890     5.4830 c3         1 0RP       0.177300
     24 C17          1.5230     2.2440     6.7380 ca         1 0RP      -0.138300
     25 C18          1.8240     0.9870     7.2260 ca         1 0RP      -0.041000
     26 C19          2.5780     0.8540     8.3760 ca         1 0RP      -0.186800
     27 C20          3.0320     1.9790     9.0390 ca         1 0RP      -0.029000
     28 C21          2.7310     3.2360     8.5500 ca         1 0RP      -0.186800
     29 C22          1.9810     3.3690     7.3980 ca         1 0RP      -0.041000
     30 C23          3.2260     4.4640     9.2740 c3         1 0RP       0.676700
     31 F4           2.1320     5.2410     9.6720 f          1 0RP      -0.218467
     32 F5           3.9580     4.0770    10.4010 f          1 0RP      -0.218467
     33 F6           4.0420     5.2110     8.4190 f          1 0RP      -0.218467
     34 C24          2.9060    -0.5180     8.9090 c3         1 0RP       0.676700
     35 F7           4.1090    -0.9600     8.3490 f          1 0RP      -0.218467
     36 F8           3.0320    -0.4590    10.3010 f          1 0RP      -0.218467
     37 F9           1.8800    -1.4060     8.5710 f          1 0RP      -0.218467
     38 C25          2.0750     3.5830     3.8640 c          1 0RP       0.757100
     39 O3           1.7770     4.6210     4.4210 o          1 0RP      -0.609000
     40 O4           2.8900     3.6040     2.7920 os         1 0RP      -0.427900
     41 C26          3.3770     4.9010     2.3590 c3         1 0RP       0.151700
     42 H4          -0.3610     1.0010     0.2020 hc         1 0RP       0.034367
     43 H5          -0.3610    -0.3260    -0.9680 hc         1 0RP       0.034367
     44 H3          -0.3610    -0.6760     0.7660 hc         1 0RP       0.034367
     45 H6           1.8910     0.8840    -0.5110 hc         1 0RP       0.080200
     46 H7           1.8910    -0.8850    -0.5110 hc         1 0RP       0.080200
     47 H1           1.7340    -0.9090     1.9460 h1         1 0RP       0.058700
     48 H9           1.8700     2.1200     1.7330 hc         1 0RP       0.079700
     49 H8           0.3980     1.1790     2.1650 hc         1 0RP       0.079700
     50 H2           1.4570     0.3290     4.1410 h1         1 0RP       0.068700
     51 H10          3.5500     1.7210     5.7160 ha         1 0RP       0.153000
     52 H11          7.2580     0.5040     3.9840 ha         1 0RP       0.153000
     53 H12          6.0860    -0.1190     1.9080 ha         1 0RP       0.193000
     54 H14          5.9640     0.3640    -1.6240 h1         1 0RP       0.053200
     55 H13          6.0160    -1.3580    -1.2220 h1         1 0RP       0.053200
     56 H17          8.0750    -1.0060     0.0820 hc         1 0RP       0.049700
     57 H16          8.0160     0.7260    -0.2720 hc         1 0RP       0.049700
     58 H15          8.2940    -0.4340    -1.5780 hc         1 0RP       0.049700
     59 H19          0.1350     3.3120     5.5260 h1         1 0RP       0.075700
     60 H18          0.0170     1.5510     5.4010 h1         1 0RP       0.075700
     61 H20          1.4690     0.1050     6.7070 ha         1 0RP       0.162000
     62 H21          3.6220     1.8750     9.9420 ha         1 0RP       0.170000
     63 H22          1.7450     4.3550     7.0150 ha         1 0RP       0.162000
     64 H24          2.5360     5.5360     2.1050 h1         1 0RP       0.052367
     65 H25          3.9460     5.3590     3.1590 h1         1 0RP       0.052367
     66 H23          4.0110     4.7770     1.4900 h1         1 0RP       0.052367
@<TRIPOS>BOND
     1    20    18 1   
     2    19    18 1   
     3    18    21 1   
     4    18     8 1   
     5     8     9 ar  
     6     8     7 ar  
     7     9    10 ar  
     8     7     6 ar  
     9    10    11 ar  
    10     6    11 ar  
    11     6     5 1   
    12    11    12 1   
    13    23    22 1   
    14    23    24 1   
    15    12     3 1   
    16    12    13 1   
    17     2     1 1   
    18     2     3 1   
    19    22     5 1   
    20    22    38 1   
    21     5     4 1   
    22    40    38 1   
    23    40    41 1   
    24    38    39 2   
    25    15    13 1   
    26    15    16 1   
    27    36    34 1   
    28     4     3 1   
    29    13    14 2   
    30    17    16 1   
    31    25    24 ar  
    32    25    26 ar  
    33    24    29 ar  
    34    34    35 1   
    35    34    26 1   
    36    34    37 1   
    37    26    27 ar  
    38    29    28 ar  
    39    27    28 ar  
    40    28    30 1   
    41    30    32 1   
    42    30    33 1   
    43    30    31 1   
    44     1    42 1   
    45     1    43 1   
    46     1    44 1   
    47     2    45 1   
    48     2    46 1   
    49     3    47 1   
    50     4    48 1   
    51     4    49 1   
    52     5    50 1   
    53     7    51 1   
    54     9    52 1   
    55    10    53 1   
    56    16    54 1   
    57    16    55 1   
    58    17    56 1   
    59    17    57 1   
    60    17    58 1   
    61    23    59 1   
    62    23    60 1   
    63    25    61 1   
    64    27    62 1   
    65    29    63 1   
    66    41    64 1   
    67    41    65 1   
    68    41    66 1   
@<TRIPOS>SUBSTRUCTURE
     1 0RP         1 TEMP              0 ****  ****    0 ROOT
