@<TRIPOS>MOLECULE
0RP
   66    68     1     0     0
SMALL
bcc


@<TRIPOS>ATOM
      1 C1           0.0000     0.0000     0.0000 c3         1 0RP       0.000900
      2 C2           1.5300     0.0000     0.0000 c3         1 0RP      -0.065400
      3 C3           2.0400     0.0000     1.4430 c3         1 0RP       0.039700
      4 C4           1.4810     1.2180     2.1900 c3         1 0RP      -0.090400
      5 C5           1.9450     1.1600     3.6450 c3         1 0RP       0.099000
      6 C6           3.4380     0.9680     3.7150 ca         1 0RP      -0.155300
      7 C7           4.1050     1.3160     4.8780 ca         1 0RP      -0.030000
      8 C8           5.4730     1.1500     4.9740 ca         1 0RP      -0.230300
      9 C9           6.1850     0.6340     3.9070 ca         1 0RP      -0.006000
     10 C10          5.5290     0.2860     2.7440 ca         1 0RP      -0.186000
     11 C11          4.1520     0.4530     2.6450 ca         1 0RP      -0.011400
     12 N1           3.5060     0.1010     1.4520 n          1 0RP       0.034000
     13 C12          4.2170    -0.1390     0.3320 c          1 0RP       0.693100
     14 O1           3.6440    -0.4000    -0.7070 o          1 0RP      -0.639000
     15 O2           5.5620    -0.0920     0.3660 os         1 0RP      -0.410900
     16 C13          6.2630    -0.3610    -0.8770 c3         1 0RP       0.223400
     17 C14          7.7720    -0.2620    -0.6440 c3         1 0RP      -0.006100
     18 C15          6.1890     1.5310     6.2430 c3         1 0RP       0.645200
     19 F1           5.9950     2.8940     6.4970 f          1 0RP      -0.208967
     20 F2           5.6810     0.7810     7.3090 f          1 0RP      -0.208967
     21 F3           7.5570     1.2740     6.1020 f          1 0RP      -0.208967
     22 N2           1.5870     2.4120     4.3180 n          1 0RP      -0.140800
     23 C16          0.7000     2.3890     5.4830 c3         1 0RP       0.127300
     24 C17          1.5230     2.2440     6.7380 ca         1 0RP      -0.151300
     25 C18          1.8240     0.9870     7.2260 ca         1 0RP       0.003500
     26 C19          2.5780     0.8540     8.3760 ca         1 0RP      -0.216300
     27 C20          3.0320     1.9790     9.0390 ca         1 0RP       0.020000
     28 C21          2.7310     3.2360     8.5500 ca         1 0RP      -0.216300
     29 C22          1.9810     3.3690     7.3980 ca         1 0RP       0.003500
     30 C23          3.2260     4.4640     9.2740 c3         1 0RP       0.645700
     31 F4           2.1320     5.2410     9.6720 f          1 0RP      -0.203967
     32 F5           3.9580     4.0770    10.4010 f          1 0RP      -0.203967
     33 F6           4.0420     5.2110     8.4190 f          1 0RP      -0.203967
     34 C24          2.9060    -0.5180     8.9090 c3         1 0RP       0.645700
     35 F7           4.1090    -0.9600     8.3490 f          1 0RP      -0.203967
     36 F8           3.0320    -0.4590    10.3010 f          1 0RP      -0.203967
     37 F9           1.8800    -1.4060     8.5710 f          1 0RP      -0.203967
     38 C25          2.0750     3.5830     3.8640 c          1 0RP       0.703100
     39 O3           1.7770     4.6210     4.4210 o          1 0RP      -0.653000
     40 O4           2.8900     3.6040     2.7920 os         1 0RP      -0.414900
     41 C26          3.3770     4.9010     2.3590 c3         1 0RP       0.275700
     42 H4          -0.3610     1.0010     0.2020 hc         1 0RP       0.002700
     43 H5          -0.3610    -0.3260    -0.9680 hc         1 0RP       0.002700
     44 H3          -0.3610    -0.6760     0.7660 hc         1 0RP       0.002700
     45 H6           1.8910     0.8840    -0.5110 hc         1 0RP       0.059700
     46 H7           1.8910    -0.8850    -0.5110 hc         1 0RP       0.059700
     47 H1           1.7340    -0.9090     1.9460 h1         1 0RP       0.034700
     48 H9           1.8700     2.1200     1.7330 hc         1 0RP       0.055700
     49 H8           0.3980     1.1790     2.1650 hc         1 0RP       0.055700
     50 H2           1.4570     0.3290     4.1410 h1         1 0RP       0.043700
     51 H10          3.5500     1.7210     5.7160 ha         1 0RP       0.130000
     52 H11          7.2580     0.5040     3.9840 ha         1 0RP       0.122000
     53 H12          6.0860    -0.1190     1.9080 ha         1 0RP       0.177000
     54 H14          5.9640     0.3640    -1.6240 h1         1 0RP       0.014200
     55 H13          6.0160    -1.3580    -1.2220 h1         1 0RP       0.014200
     56 H17          8.0750    -1.0060     0.0820 hc         1 0RP       0.012367
     57 H16          8.0160     0.7260    -0.2720 hc         1 0RP       0.012367
     58 H15          8.2940    -0.4340    -1.5780 hc         1 0RP       0.012367
     59 H19          0.1350     3.3120     5.5260 h1         1 0RP       0.043700
     60 H18          0.0170     1.5510     5.4010 h1         1 0RP       0.043700
     61 H20          1.4690     0.1050     6.7070 ha         1 0RP       0.133000
     62 H21          3.6220     1.8750     9.9420 ha         1 0RP       0.139000
     63 H22          1.7450     4.3550     7.0150 ha         1 0RP       0.133000
     64 H24          2.5360     5.5360     2.1050 h1         1 0RP       0.004367
     65 H25          3.9460     5.3590     3.1590 h1         1 0RP       0.004367
     66 H23          4.0110     4.7770     1.4900 h1         1 0RP       0.004367
@<TRIPOS>BOND
     1     1     2 1   
     2     1    42 1   
     3     1    43 1   
     4     1    44 1   
     5     2     3 1   
     6     2    45 1   
     7     2    46 1   
     8     3     4 1   
     9     3    12 1   
    10     3    47 1   
    11     4     5 1   
    12     4    48 1   
    13     4    49 1   
    14     5     6 1   
    15     5    22 1   
    16     5    50 1   
    17     6     7 ar  
    18     6    11 ar  
    19     7     8 ar  
    20     7    51 1   
    21     8     9 ar  
    22     8    18 1   
    23     9    10 ar  
    24     9    52 1   
    25    10    11 ar  
    26    10    53 1   
    27    11    12 1   
    28    12    13 1   
    29    13    14 2   
    30    13    15 1   
    31    15    16 1   
    32    16    17 1   
    33    16    54 1   
    34    16    55 1   
    35    17    56 1   
    36    17    57 1   
    37    17    58 1   
    38    18    19 1   
    39    18    20 1   
    40    18    21 1   
    41    22    23 1   
    42    22    38 1   
    43    23    24 1   
    44    23    59 1   
    45    23    60 1   
    46    24    25 ar  
    47    24    29 ar  
    48    25    26 ar  
    49    25    61 1   
    50    26    27 ar  
    51    26    34 1   
    52    27    28 ar  
    53    27    62 1   
    54    28    29 ar  
    55    28    30 1   
    56    29    63 1   
    57    30    31 1   
    58    30    32 1   
    59    30    33 1   
    60    34    35 1   
    61    34    36 1   
    62    34    37 1   
    63    38    39 2   
    64    38    40 1   
    65    40    41 1   
    66    41    64 1   
    67    41    65 1   
    68    41    66 1   
@<TRIPOS>SUBSTRUCTURE
     1 0RP         1 TEMP              0 ****  ****    0 ROOT
