@<TRIPOS>MOLECULE
0RR
   44    47     1     0     0
SMALL
bcc


@<TRIPOS>ATOM
      1 OAA         -0.4180     0.6500    -0.4770 o          1 0RR      -0.836300
      2 CAS          0.5330    -0.0880    -0.0960 c          1 0RR       0.921600
      3 OAD          0.5840    -0.6890     1.0110 o          1 0RR      -0.836300
      4 CAO          1.7380    -0.2830    -1.0480 c3         1 0RR      -0.228400
      5 CAP          1.5040     0.4980    -2.3270 c3         1 0RR       0.099000
      6 NBE          2.5830     0.4180    -3.3090 n          1 0RR      -0.419400
      7 CAX          3.7050     1.2850    -3.2440 c          1 0RR       0.690700
      8 OAB          3.7430     2.2460    -2.4710 o          1 0RR      -0.550500
      9 CAZ          2.6560    -0.5500    -4.2870 cs         1 0RR       0.349000
     10 SAE          1.6910    -1.6640    -4.7450 s          1 0RR      -0.287400
     11 SAR          4.1760    -0.3900    -5.1680 ss         1 0RR      -0.043200
     12 CBA          4.7580     0.9150    -4.2550 cc         1 0RR      -0.048600
     13 CBB          5.9560     1.5050    -4.4290 cd         1 0RR      -0.052400
     14 CAY          6.8660     1.0640    -5.5640 c          1 0RR       0.692700
     15 OAC          6.6860     0.1490    -6.3770 o          1 0RR      -0.586500
     16 CBC          6.6900     2.5750    -3.7510 ca         1 0RR      -0.091800
     17 CAN          6.4280     3.3360    -2.6260 ca         1 0RR      -0.046000
     18 CAT          7.3730     4.2950    -2.2180 ca         1 0RR      -0.023600
     19 ClF          7.0470     5.2340    -0.8360 cl         1 0RR      -0.094400
     20 CAL          8.5640     4.4940    -2.9110 ca         1 0RR      -0.088000
     21 CAM          8.8590     3.7300    -4.0450 ca         1 0RR      -0.171000
     22 CBD          7.9340     2.7780    -4.4630 ca         1 0RR       0.067600
     23 NBF          8.0190     1.8870    -5.5490 n          1 0RR      -0.379000
     24 CAQ          9.1180     1.7590    -6.4590 c3         1 0RR       0.148300
     25 CAW          9.4370     2.9820    -7.2790 ca         1 0RR      -0.089300
     26 CAU         10.6980     3.5980    -7.2060 ca         1 0RR       0.034400
     27 ClG         11.9210     3.0130    -6.1720 cl         1 0RR      -0.072900
     28 CAJ         11.0060     4.7160    -7.9880 ca         1 0RR      -0.129000
     29 CAI         10.0530     5.2370    -8.8590 ca         1 0RR      -0.112000
     30 CAK          8.8000     4.6380    -8.9600 ca         1 0RR      -0.129000
     31 CAV          8.4990     3.5150    -8.1810 ca         1 0RR       0.034400
     32 ClH          6.9700     2.8070    -8.3740 cl         1 0RR      -0.072900
     33 H2           1.8490    -1.3760    -1.2520 hc         1 0RR       0.038200
     34 H3           2.6580     0.0720    -0.5230 hc         1 0RR       0.038200
     35 H4           0.5610     0.1260    -2.8210 h1         1 0RR       0.091700
     36 H5           1.3670     1.5880    -2.0710 h1         1 0RR       0.091700
     37 H6           5.5020     3.2080    -2.0390 ha         1 0RR       0.198000
     38 H7           9.2870     5.2520    -2.5720 ha         1 0RR       0.142000
     39 H8           9.8010     3.8840    -4.5890 ha         1 0RR       0.145000
     40 H9           8.8660     0.9160    -7.1730 h1         1 0RR       0.082200
     41 H10         10.0320     1.4560    -5.8670 h1         1 0RR       0.082200
     42 H11         11.9990     5.1850    -7.9140 ha         1 0RR       0.150000
     43 H12         10.2900     6.1210    -9.4690 ha         1 0RR       0.141000
     44 H13          8.0470     5.0450    -9.6520 ha         1 0RR       0.150000
@<TRIPOS>BOND
     1     1     2 1   
     2     2     3 1   
     3     2     4 1   
     4     4     5 1   
     5     4    33 1   
     6     4    34 1   
     7     5     6 1   
     8     5    35 1   
     9     5    36 1   
    10     6     7 1   
    11     6     9 1   
    12     7     8 2   
    13     7    12 1   
    14     9    10 2   
    15     9    11 1   
    16    11    12 1   
    17    12    13 2   
    18    13    14 1   
    19    13    16 1   
    20    14    15 2   
    21    14    23 1   
    22    16    17 ar  
    23    16    22 ar  
    24    17    18 ar  
    25    17    37 1   
    26    18    19 1   
    27    18    20 ar  
    28    20    21 ar  
    29    20    38 1   
    30    21    22 ar  
    31    21    39 1   
    32    22    23 1   
    33    23    24 1   
    34    24    25 1   
    35    24    40 1   
    36    24    41 1   
    37    25    26 ar  
    38    25    31 ar  
    39    26    27 1   
    40    26    28 ar  
    41    28    29 ar  
    42    28    42 1   
    43    29    30 ar  
    44    29    43 1   
    45    30    31 ar  
    46    30    44 1   
    47    31    32 1   
@<TRIPOS>SUBSTRUCTURE
     1 0RR         1 TEMP              0 ****  ****    0 ROOT
