@<TRIPOS>MOLECULE
molecule
   44    47     1     0     0
SMALL
bcc


@<TRIPOS>ATOM
      1 OAA          0.0000     0.0000     0.0000 o          1 0RR      -0.843300
      2 CAS          1.3420     0.0000     0.0000 c          1 0RR       0.900600
      3 OAD          1.9460     0.0000     1.0470 o          1 0RR      -0.843300
      4 CAO          2.0950     0.0020    -1.3040 c3         1 0RR      -0.201400
      5 CAP          3.6000     0.0030    -1.0250 c3         1 0RR       0.084000
      6 NBE          4.3330     0.0040    -2.2930 n          1 0RR      -0.388400
      7 CAX          4.6650     1.1470    -2.8680 c          1 0RR       0.686700
      8 OAB          4.3880     2.2290    -2.3870 o          1 0RR      -0.563500
      9 CAZ          4.6740    -1.1530    -2.8730 cs         1 0RR       0.424000
     10 SAE          4.3420    -2.7240    -2.2830 s          1 0RR      -0.420400
     11 SAR          5.5360    -0.7490    -4.3680 ss         1 0RR      -0.077200
     12 CBA          5.4020     1.0060    -4.1440 cc         1 0RR      -0.025600
     13 CBB          5.8750     2.0080    -4.9680 cd         1 0RR      -0.040400
     14 CAY          6.7680     1.8640    -6.1360 c          1 0RR       0.705700
     15 OAC          7.2320     0.8220    -6.5580 o          1 0RR      -0.585500
     16 CBC          5.5920     3.4550    -4.8770 ca         1 0RR      -0.114800
     17 CAN          4.8220     4.2250    -4.0080 ca         1 0RR      -0.044000
     18 CAT          4.7520     5.5920    -4.1840 ca         1 0RR      -0.007600
     19 ClF          3.7960     6.5570    -3.1040 cl         1 0RR      -0.099400
     20 CAL          5.4450     6.1960    -5.2220 ca         1 0RR      -0.086000
     21 CAM          6.2100     5.4410    -6.0890 ca         1 0RR      -0.166000
     22 CBD          6.2940     4.0630    -5.9290 ca         1 0RR       0.063600
     23 NBF          6.9760     3.0890    -6.6490 n          1 0RR      -0.360000
     24 CAQ          7.8120     3.3620    -7.8210 c3         1 0RR       0.156300
     25 CAW          9.2590     3.4190    -7.4030 ca         1 0RR      -0.110300
     26 CAU         10.0380     2.2770    -7.4480 ca         1 0RR       0.051400
     27 ClG          9.3490     0.7770    -7.9860 cl         1 0RR      -0.075900
     28 CAJ         11.3660     2.3310    -7.0650 ca         1 0RR      -0.126000
     29 CAI         11.9150     3.5260    -6.6370 ca         1 0RR      -0.106000
     30 CAK         11.1370     4.6670    -6.5910 ca         1 0RR      -0.126000
     31 CAV          9.8100     4.6160    -6.9800 ca         1 0RR       0.051400
     32 ClH          8.8340     6.0510    -6.9300 cl         1 0RR      -0.075900
     33 H2           1.8330     0.8870    -1.8720 hc         1 0RR       0.044200
     34 H3           1.8340    -0.8820    -1.8730 hc         1 0RR       0.044200
     35 H4           3.8620    -0.8820    -0.4570 h1         1 0RR       0.095200
     36 H5           3.8610     0.8870    -0.4560 h1         1 0RR       0.095200
     37 H6           4.1990     3.7420    -3.2650 ha         1 0RR       0.209000
     38 H7           5.3860     7.2700    -5.3540 ha         1 0RR       0.140000
     39 H8           6.7460     5.9250    -6.8970 ha         1 0RR       0.141000
     40 H9           7.6780     2.5730    -8.5520 h1         1 0RR       0.078700
     41 H10          7.5240     4.3110    -8.2570 h1         1 0RR       0.078700
     42 H11         11.9770     1.4370    -7.1000 ha         1 0RR       0.147500
     43 H12         12.9550     3.5670    -6.3350 ha         1 0RR       0.141000
     44 H13         11.5680     5.6030    -6.2580 ha         1 0RR       0.147500
@<TRIPOS>BOND
     1     3     2 1   
     2     2     4 1   
     3     2     1 1   
     4     4     5 1   
     5    27    26 1   
     6    24    23 1   
     7    24    25 1   
     8    21    20 ar  
     9    21    22 ar  
    10    20    18 ar  
    11    23    22 1   
    12    23    14 1   
    13    22    16 ar  
    14    18    19 1   
    15    18    17 ar  
    16    14    15 2   
    17    14    13 1   
    18    16    17 ar  
    19    16    13 1   
    20    13    12 2   
    21    11    12 1   
    22    11     9 1   
    23    12     7 1   
    24     7     8 2   
    25     7     6 1   
    26     9     6 1   
    27     9    10 2   
    28     6     5 1   
    29    25    26 ar  
    30    25    31 ar  
    31    26    28 ar  
    32    32    31 1   
    33    31    30 ar  
    34    28    29 ar  
    35    30    29 ar  
    36     4    33 1   
    37     4    34 1   
    38     5    35 1   
    39     5    36 1   
    40    17    37 1   
    41    20    38 1   
    42    21    39 1   
    43    24    40 1   
    44    24    41 1   
    45    28    42 1   
    46    29    43 1   
    47    30    44 1   
@<TRIPOS>SUBSTRUCTURE
     1 0RR         1 TEMP              0 ****  ****    0 ROOT
