@<TRIPOS>MOLECULE
0RS
   64    69     1     0     0
SMALL
bcc


@<TRIPOS>ATOM
      1 C1           3.5690    -1.9730     3.0220 c3         1 0RS       0.083100
      2 C2           5.6920    -2.4540     1.9160 c3         1 0RS       0.083100
      3 C3           3.6810    -1.8190     0.5500 c3         1 0RS       0.141500
      4 O1          10.7730    -5.6370    -4.1250 o          1 0RS      -0.487100
      5 C11          6.7590    -4.4100    -4.1150 ca         1 0RS      -0.164500
      6 C12          8.8080    -4.6660    -3.2300 cc         1 0RS       0.359800
      7 C13          6.8380    -3.7970    -2.7840 ca         1 0RS       0.516300
      8 C14         10.2360    -5.1120    -3.1470 c          1 0RS       0.530400
      9 C15         10.9270    -4.8470    -1.8710 ca         1 0RS      -0.120600
     10 C16         12.2310    -4.3390    -1.8870 ca         1 0RS      -0.187300
     11 C17         12.8380    -4.0350    -0.6530 ca         1 0RS       0.393200
     12 C18         10.9790    -4.6930     0.5470 cp         1 0RS       0.444800
     13 C19         10.3030    -5.0680    -0.6380 ca         1 0RS      -0.174300
     14 C20         10.2260    -4.7910     1.8100 cp         1 0RS      -0.218800
     15 C21          8.9790    -4.1730     1.8660 ca         1 0RS       0.376200
     16 C22          8.6200    -4.7870     4.0540 ca         1 0RS       0.433200
     17 C23          9.8780    -5.4690     4.1230 ca         1 0RS      -0.159300
     18 C24         10.3040    -6.1280     5.3030 ca         1 0RS      -0.109000
     19 C25         11.5120    -6.7820     5.3310 ca         1 0RS      -0.114000
     20 C26         12.3340    -6.8060     4.1790 ca         1 0RS      -0.102000
     21 C27         11.9440    -6.1730     3.0220 ca         1 0RS      -0.111000
     22 C28         10.7070    -5.4760     2.9660 ca         1 0RS       0.017000
     23 N1           4.4370    -1.6570     1.8610 nx         1 0RS      -0.682400
     24 C4           4.3210    -0.9580    -0.5440 c3         1 0RS      -0.134900
     25 C5           3.6230    -1.1860    -1.8890 c3         1 0RS       0.172300
     26 N2           3.4420    -2.5680    -2.3000 nh         1 0RS      -0.694300
     27 C6           2.8540    -3.3700    -1.2380 c3         1 0RS       0.172300
     28 C7           3.5480    -3.2810     0.1260 c3         1 0RS      -0.134900
     29 C8           4.6240    -3.1770    -2.8830 ca         1 0RS       0.548200
     30 C9           4.4790    -3.7380    -4.1980 ca         1 0RS      -0.186300
     31 C10          5.5480    -4.3590    -4.8200 ca         1 0RS      -0.080000
     32 N3           8.0140    -4.9480    -4.3640 na         1 0RS      -0.230300
     33 N4           8.1470    -3.9730    -2.2750 nd         1 0RS      -0.611700
     34 N5           5.7810    -3.1950    -2.1820 nb         1 0RS      -0.673000
     35 N6          12.2370    -4.1850     0.5400 nb         1 0RS      -0.627000
     36 N7           8.1750    -4.1650     2.9720 nb         1 0RS      -0.724000
     37 H1           3.2030    -3.0310     2.9390 hx         1 0RS       0.106367
     38 H2           4.1620    -1.8590     3.9690 hx         1 0RS       0.106367
     39 H3           2.6920    -1.2730     3.0390 hx         1 0RS       0.106367
     40 H4           6.2600    -2.3390     0.9540 hx         1 0RS       0.106367
     41 H5           6.3210    -2.0910     2.7740 hx         1 0RS       0.106367
     42 H6           5.4520    -3.5390     2.0750 hx         1 0RS       0.106367
     43 H7           2.6400    -1.4150     0.7490 hx         1 0RS       0.089700
     44 H8          12.7670    -4.1800    -2.8330 ha         1 0RS       0.167000
     45 H9          13.8690    -3.6340    -0.6180 h4         1 0RS       0.041100
     46 H10          9.3040    -5.5200    -0.5680 ha         1 0RS       0.160000
     47 H11          8.5730    -3.6420     0.9860 h4         1 0RS       0.022100
     48 H12          7.9670    -4.7710     4.9460 h4         1 0RS       0.018100
     49 H13          9.6520    -6.1060     6.1900 ha         1 0RS       0.139000
     50 H14         11.8530    -7.2950     6.2440 ha         1 0RS       0.147000
     51 H15         13.2960    -7.3410     4.2220 ha         1 0RS       0.147000
     52 H16         12.5900    -6.2030     2.1330 ha         1 0RS       0.154000
     53 H18          4.2180     0.1290    -0.2820 hc         1 0RS       0.076450
     54 H19          5.4150    -1.1840    -0.6440 hc         1 0RS       0.076450
     55 H20          4.2090    -0.6420    -2.6830 h1         1 0RS       0.078700
     56 H21          2.5900    -0.7350    -1.8440 h1         1 0RS       0.078700
     57 H22          2.8410    -4.4500    -1.5570 h1         1 0RS       0.078700
     58 H23          1.7860    -3.0240    -1.1310 h1         1 0RS       0.078700
     59 H24          2.9310    -3.8450     0.8730 hc         1 0RS       0.076450
     60 H25          4.5530    -3.7750     0.0630 hc         1 0RS       0.076450
     61 H26          3.5060    -3.6690    -4.7100 ha         1 0RS       0.171000
     62 H27          5.4480    -4.7950    -5.8250 ha         1 0RS       0.162000
     63 H28          8.3200    -5.4180    -5.1780 hn         1 0RS       0.336700
     64 H111         4.7000    -0.6630     1.9210 hn         1 0RS       0.442800
@<TRIPOS>BOND
     1     1    23 1   
     2     1    37 1   
     3     1    38 1   
     4     1    39 1   
     5     2    23 1   
     6     2    40 1   
     7     2    41 1   
     8     2    42 1   
     9     3    23 1   
    10     3    24 1   
    11     3    28 1   
    12     3    43 1   
    13     4     8 2   
    14     5     7 ar  
    15     5    31 ar  
    16     5    32 1   
    17     6     8 1   
    18     6    32 1   
    19     6    33 2   
    20     7    33 1   
    21     7    34 ar  
    22     8     9 1   
    23     9    10 ar  
    24     9    13 ar  
    25    10    11 ar  
    26    10    44 1   
    27    11    35 ar  
    28    11    45 1   
    29    12    13 ar  
    30    12    14 1   
    31    12    35 ar  
    32    13    46 1   
    33    14    15 ar  
    34    14    22 ar  
    35    15    36 ar  
    36    15    47 1   
    37    16    17 ar  
    38    16    36 ar  
    39    16    48 1   
    40    17    18 ar  
    41    17    22 ar  
    42    18    19 ar  
    43    18    49 1   
    44    19    20 ar  
    45    19    50 1   
    46    20    21 ar  
    47    20    51 1   
    48    21    22 ar  
    49    21    52 1   
    50    23    64 1   
    51    24    25 1   
    52    24    53 1   
    53    24    54 1   
    54    25    26 1   
    55    25    55 1   
    56    25    56 1   
    57    26    27 1   
    58    26    29 1   
    59    27    28 1   
    60    27    57 1   
    61    27    58 1   
    62    28    59 1   
    63    28    60 1   
    64    29    30 ar  
    65    29    34 ar  
    66    30    31 ar  
    67    30    61 1   
    68    31    62 1   
    69    32    63 1   
@<TRIPOS>SUBSTRUCTURE
     1 0RS         1 TEMP              0 ****  ****    0 ROOT
