@<TRIPOS>MOLECULE
molecule
   63    68     1     0     0
SMALL
bcc


@<TRIPOS>ATOM
      1 C1           0.0000     0.0000     0.0000 c3         1 0RS       0.150100
      2 C2           1.9950     0.0000     1.3710 c3         1 0RS       0.150100
      3 C3           1.9950    -1.1370    -0.7660 c3         1 0RS       0.169500
      4 O1           7.8400    -8.1030    -6.2140 o          1 0RS      -0.514100
      5 C11          5.1700    -4.9450    -5.5090 ca         1 0RS      -0.235500
      6 C12          6.7270    -6.4300    -5.0240 cc         1 0RS       0.366800
      7 C13          5.5530    -4.8180    -4.1590 ca         1 0RS       0.598300
      8 C14          7.7000    -7.5350    -5.1490 c          1 0RS       0.542400
      9 C15          8.5040    -7.9490    -3.9780 ca         1 0RS      -0.139600
     10 C16          8.3580    -7.3060    -2.7420 ca         1 0RS      -0.204300
     11 C17          9.1260    -7.7210    -1.6700 ca         1 0RS       0.403200
     12 C18         10.1600    -9.3510    -2.9440 cp         1 0RS       0.463800
     13 C19          9.4260    -8.9950    -4.0740 ca         1 0RS      -0.180300
     14 C20         11.1420   -10.4570    -3.0260 cp         1 0RS      -0.251800
     15 C21         12.0630   -10.5120    -4.0590 ca         1 0RS       0.430200
     16 C22         13.0200   -12.4670    -3.2680 ca         1 0RS       0.451200
     17 C23         12.1300   -12.5130    -2.1820 ca         1 0RS      -0.169300
     18 C24         12.1670   -13.5460    -1.2320 ca         1 0RS      -0.107000
     19 C25         11.2800   -13.5400    -0.1990 ca         1 0RS      -0.127000
     20 C26         10.3340   -12.5260    -0.0700 ca         1 0RS      -0.115000
     21 C27         10.2770   -11.5010    -0.9680 ca         1 0RS      -0.107000
     22 C28         11.1660   -11.4800    -2.0480 ca         1 0RS       0.011000
     23 N1           1.4680     0.0000     0.0000 n3         1 0RS      -0.728600
     24 C4           1.4300    -1.1030    -2.1880 c3         1 0RS      -0.080400
     25 C5           2.0280    -2.2550    -2.9990 c3         1 0RS       0.171300
     26 N2           3.4900    -2.1230    -3.0320 nh         1 0RS      -0.695300
     27 C6           4.0610    -2.2000    -1.6810 c3         1 0RS       0.171300
     28 C7           3.5230    -1.0480    -0.8290 c3         1 0RS      -0.080400
     29 C8           4.0580    -3.0760    -3.8670 ca         1 0RS       0.626200
     30 C9           3.6410    -3.1560    -5.2000 ca         1 0RS      -0.243300
     31 C10          4.1960    -4.0930    -6.0280 ca         1 0RS      -0.069000
     32 N3           5.9250    -5.9680    -6.0320 na         1 0RS      -0.216300
     33 N4           6.4950    -5.7490    -3.9270 nd         1 0RS      -0.654700
     34 N5           4.9810    -3.8880    -3.3900 nb         1 0RS      -0.704000
     35 N6           9.9890    -8.7080    -1.7960 nb         1 0RS      -0.665000
     36 N7          12.9490   -11.4920    -4.1430 nb         1 0RS      -0.695000
     37 H1          -0.3610    -1.0100     0.1530 h1         1 0RS       0.032200
     38 H2          -0.3610     0.3720    -0.9510 h1         1 0RS       0.032200
     39 H3          -0.3610     0.6380     0.7980 h1         1 0RS       0.032200
     40 H4           1.9780    -1.0090     1.7650 h1         1 0RS       0.032200
     41 H5           3.0140     0.3690     1.3670 h1         1 0RS       0.032200
     42 H6           1.3820     0.6410     1.9940 h1         1 0RS       0.032200
     43 H7           1.7090    -2.0650    -0.2870 h1         1 0RS       0.023700
     44 H8           7.6510    -6.4930    -2.6270 ha         1 0RS       0.205000
     45 H9           9.0180    -7.2250    -0.7130 h4         1 0RS       0.033100
     46 H10          9.4230    -9.6410    -4.9440 ha         1 0RS       0.161000
     47 H11         12.0580    -9.7370    -4.8150 h4         1 0RS       0.027100
     48 H12         13.7660   -13.2440    -3.3860 h4         1 0RS       0.026100
     49 H13         12.8980   -14.3410    -1.3200 ha         1 0RS       0.135000
     50 H14         11.3030   -14.3430     0.5280 ha         1 0RS       0.130000
     51 H15          9.6400   -12.5470     0.7610 ha         1 0RS       0.132000
     52 H16          9.5360   -10.7180    -0.8560 ha         1 0RS       0.154000
     53 H18          0.3520    -1.2100    -2.1490 hc         1 0RS       0.059700
     54 H19          1.6880    -0.1600    -2.6560 hc         1 0RS       0.059700
     55 H20          1.6410    -2.2210    -4.0100 h1         1 0RS       0.050700
     56 H21          1.7620    -3.1970    -2.5360 h1         1 0RS       0.050700
     57 H22          5.1400    -2.1280    -1.7430 h1         1 0RS       0.050700
     58 H23          3.7830    -3.1430    -1.2270 h1         1 0RS       0.050700
     59 H24          3.8110    -0.1040    -1.2760 hc         1 0RS       0.059700
     60 H25          3.9300    -1.1190     0.1720 hc         1 0RS       0.059700
     61 H26          2.9720    -2.4050    -5.6040 ha         1 0RS       0.154000
     62 H27          3.8870    -4.1710    -7.0630 ha         1 0RS       0.140000
     63 H28          5.7880    -6.4050    -6.9220 hn         1 0RS       0.320700
@<TRIPOS>BOND
     1    36    16 ar
     2    36    15 ar
     3    16    17 ar
     4    15    14 ar
     5    17    18 ar
     6    17    22 ar
     7    18    19 ar
     8    14    22 ar
     9    14    12 1
    10    22    21 ar
    11    35    12 ar
    12    35    11 ar
    13    19    20 ar
    14    12    13 ar
    15    11    10 ar
    16    21    20 ar
    17    13     9 ar
    18    10     9 ar
    19     9     8 1
    20     8     6 1
    21     8     4 2
    22    32     6 1
    23    32     5 1
    24     6    33 2
    25    31     5 ar
    26    31    30 ar
    27     5     7 ar
    28    33     7 1
    29    30    29 ar
    30     7    34 ar
    31    29    34 ar
    32    29    26 1
    33    26    27 1
    34    26    25 1
    35    27    28 1
    36    28     3 1
    37    25    24 1
    38     2    23 1
    39    24     3 1
    40     3    23 1
    41    23     1 1
    42     1    37 1
    43     1    38 1
    44     1    39 1
    45     2    40 1
    46     2    41 1
    47     2    42 1
    48     3    43 1
    49    10    44 1
    50    11    45 1
    51    13    46 1
    52    15    47 1
    53    16    48 1
    54    18    49 1
    55    19    50 1
    56    20    51 1
    57    21    52 1
    58    24    53 1
    59    24    54 1
    60    25    55 1
    61    25    56 1
    62    27    57 1
    63    27    58 1
    64    28    59 1
    65    28    60 1
    66    30    61 1
    67    31    62 1
    68    32    63 1
@<TRIPOS>SUBSTRUCTURE
     1 0RS         1 TEMP              0 ****  ****    0 ROOT
