@<TRIPOS>MOLECULE
0RS
   63    68     1     0     0
SMALL
bcc


@<TRIPOS>ATOM
      1 C1           0.0000     0.0000     0.0000 c3         1 0RS       0.177100
      2 C2           1.9950     0.0000     1.3710 c3         1 0RS       0.177100
      3 C3           1.9950    -1.1370    -0.7660 c3         1 0RS       0.127500
      4 O1           7.8400    -8.1030    -6.2140 o          1 0RS      -0.565100
      5 C11          5.1700    -4.9450    -5.5090 ca         1 0RS      -0.424500
      6 C12          6.7270    -6.4300    -5.0240 cc         1 0RS       0.126800
      7 C13          5.5530    -4.8180    -4.1590 ca         1 0RS       0.511300
      8 C14          7.7000    -7.5350    -5.1490 c          1 0RS       0.604400
      9 C15          8.5040    -7.9490    -3.9780 ca         1 0RS      -0.153600
     10 C16          8.3580    -7.3060    -2.7420 ca         1 0RS      -0.194300
     11 C17          9.1260    -7.7210    -1.6700 ca         1 0RS       0.384200
     12 C18         10.1600    -9.3510    -2.9440 cp         1 0RS       0.418800
     13 C19          9.4260    -8.9950    -4.0740 ca         1 0RS      -0.145300
     14 C20         11.1420   -10.4570    -3.0260 cp         1 0RS      -0.248800
     15 C21         12.0630   -10.5120    -4.0590 ca         1 0RS       0.409200
     16 C22         13.0200   -12.4670    -3.2680 ca         1 0RS       0.431200
     17 C23         12.1300   -12.5130    -2.1820 ca         1 0RS      -0.164300
     18 C24         12.1670   -13.5460    -1.2320 ca         1 0RS      -0.075000
     19 C25         11.2800   -13.5400    -0.1990 ca         1 0RS      -0.101000
     20 C26         10.3340   -12.5260    -0.0700 ca         1 0RS      -0.087000
     21 C27         10.2770   -11.5010    -0.9680 ca         1 0RS      -0.089000
     22 C28         11.1660   -11.4800    -2.0480 ca         1 0RS       0.009000
     23 N1           1.4680     0.0000     0.0000 n3         1 0RS      -0.539600
     24 C4           1.4300    -1.1030    -2.1880 c3         1 0RS      -0.036400
     25 C5           2.0280    -2.2550    -2.9990 c3         1 0RS       0.145800
     26 N2           3.4900    -2.1230    -3.0320 nh         1 0RS      -0.462300
     27 C6           4.0610    -2.2000    -1.6810 c3         1 0RS       0.145800
     28 C7           3.5230    -1.0480    -0.8290 c3         1 0RS      -0.036400
     29 C8           4.0580    -3.0760    -3.8670 ca         1 0RS       0.488200
     30 C9           3.6410    -3.1560    -5.2000 ca         1 0RS      -0.219300
     31 C10          4.1960    -4.0930    -6.0280 ca         1 0RS      -0.026000
     32 N3           5.9250    -5.9680    -6.0320 na         1 0RS       0.347700
     33 N4           6.4950    -5.7490    -3.9270 nd         1 0RS      -0.551700
     34 N5           4.9810    -3.8880    -3.3900 nb         1 0RS      -0.572000
     35 N6           9.9890    -8.7080    -1.7960 nb         1 0RS      -0.548000
     36 N7          12.9490   -11.4920    -4.1430 nb         1 0RS      -0.587000
     37 H1          -0.3610    -1.0100     0.1530 h1         1 0RS       0.002700
     38 H2          -0.3610     0.3720    -0.9510 h1         1 0RS       0.002700
     39 H3          -0.3610     0.6380     0.7980 h1         1 0RS       0.002700
     40 H4           1.9780    -1.0090     1.7650 h1         1 0RS       0.002700
     41 H5           3.0140     0.3690     1.3670 h1         1 0RS       0.002700
     42 H6           1.3820     0.6410     1.9940 h1         1 0RS       0.002700
     43 H7           1.7090    -2.0650    -0.2870 h1         1 0RS       0.009700
     44 H8           7.6510    -6.4930    -2.6270 ha         1 0RS       0.181000
     45 H9           9.0180    -7.2250    -0.7130 h4         1 0RS      -0.013900
     46 H10          9.4230    -9.6410    -4.9440 ha         1 0RS       0.134000
     47 H11         12.0580    -9.7370    -4.8150 h4         1 0RS      -0.016900
     48 H12         13.7660   -13.2440    -3.3860 h4         1 0RS      -0.018900
     49 H13         12.8980   -14.3410    -1.3200 ha         1 0RS       0.107000
     50 H14         11.3030   -14.3430     0.5280 ha         1 0RS       0.102000
     51 H15          9.6400   -12.5470     0.7610 ha         1 0RS       0.102000
     52 H16          9.5360   -10.7180    -0.8560 ha         1 0RS       0.126000
     53 H18          0.3520    -1.2100    -2.1490 hc         1 0RS       0.031450
     54 H19          1.6880    -0.1600    -2.6560 hc         1 0RS       0.031450
     55 H20          1.6410    -2.2210    -4.0100 h1         1 0RS       0.022700
     56 H21          1.7620    -3.1970    -2.5360 h1         1 0RS       0.022700
     57 H22          5.1400    -2.1280    -1.7430 h1         1 0RS       0.022700
     58 H23          3.7830    -3.1430    -1.2270 h1         1 0RS       0.022700
     59 H24          3.8110    -0.1040    -1.2760 hc         1 0RS       0.031450
     60 H25          3.9300    -1.1190     0.1720 hc         1 0RS       0.031450
     61 H26          2.9720    -2.4050    -5.6040 ha         1 0RS       0.129000
     62 H27          3.8870    -4.1710    -7.0630 ha         1 0RS       0.108000
     63 H28          5.7880    -6.4050    -6.9220 hn         1 0RS       0.138700
@<TRIPOS>BOND
     1     1    23 1   
     2     1    37 1   
     3     1    38 1   
     4     1    39 1   
     5     2    23 1   
     6     2    40 1   
     7     2    41 1   
     8     2    42 1   
     9     3    23 1   
    10     3    24 1   
    11     3    28 1   
    12     3    43 1   
    13     4     8 2   
    14     5     7 ar  
    15     5    31 ar  
    16     5    32 1   
    17     6     8 1   
    18     6    32 1   
    19     6    33 2   
    20     7    33 1   
    21     7    34 ar  
    22     8     9 1   
    23     9    10 ar  
    24     9    13 ar  
    25    10    11 ar  
    26    10    44 1   
    27    11    35 ar  
    28    11    45 1   
    29    12    13 ar  
    30    12    14 1   
    31    12    35 ar  
    32    13    46 1   
    33    14    15 ar  
    34    14    22 ar  
    35    15    36 ar  
    36    15    47 1   
    37    16    17 ar  
    38    16    36 ar  
    39    16    48 1   
    40    17    18 ar  
    41    17    22 ar  
    42    18    19 ar  
    43    18    49 1   
    44    19    20 ar  
    45    19    50 1   
    46    20    21 ar  
    47    20    51 1   
    48    21    22 ar  
    49    21    52 1   
    50    24    25 1   
    51    24    53 1   
    52    24    54 1   
    53    25    26 1   
    54    25    55 1   
    55    25    56 1   
    56    26    27 1   
    57    26    29 1   
    58    27    28 1   
    59    27    57 1   
    60    27    58 1   
    61    28    59 1   
    62    28    60 1   
    63    29    30 ar  
    64    29    34 ar  
    65    30    31 ar  
    66    30    61 1   
    67    31    62 1   
    68    32    63 1   
@<TRIPOS>SUBSTRUCTURE
     1 0RS         1 TEMP              0 ****  ****    0 ROOT
