@<TRIPOS>MOLECULE
molecule
   47    50     1     0     0
SMALL
bcc


@<TRIPOS>ATOM
      1 FAC          0.0000     0.0000     0.0000 f          1 0RT      -0.222633
      2 CAZ          1.3990     0.0000     0.0000 c3         1 0RT       0.615900
      3 FAD          1.8660     0.0000     1.3180 f          1 0RT      -0.222633
      4 FAE          1.8650    -1.1420    -0.6610 f          1 0RT      -0.222633
      5 CAM          1.9080     1.2500    -0.7210 c3         1 0RT      -0.053200
      6 CAT          1.4050     2.4800    -0.0100 cc         1 0RT      -0.086600
      7 SAR         -0.1070     3.2870    -0.3790 ss         1 0RT      -0.100900
      8 CAG          2.0460     3.0830     0.9730 cd         1 0RT      -0.080200
      9 C5           1.3700     4.2490     1.5140 ca         1 0RT      -0.349400
     10 C4           0.1600     4.5020     0.8630 ca         1 0RT       0.531600
     11 N3          -0.5820     5.5470     1.2500 nb         1 0RT      -0.733000
     12 C2          -0.1890     6.3320     2.2250 ca         1 0RT       0.722900
     13 N1           0.9480     6.1360     2.8720 nb         1 0RT      -0.801000
     14 C6           1.7510     5.1310     2.5580 ca         1 0RT       0.698200
     15 NAY          2.9370     4.9380     3.2430 nh         1 0RT      -0.693300
     16 CAK          3.1160     5.9610     4.2820 c3         1 0RT       0.147300
     17 CAI          4.3410     5.6110     5.1330 c3         1 0RT       0.240800
     18 CAJ          4.0790     4.9110     2.3200 c3         1 0RT       0.147300
     19 CAH          5.3440     4.5170     3.0910 c3         1 0RT       0.240800
     20 NAX          5.4940     5.4250     4.2380 nh         1 0RT      -0.776600
     21 CAS          6.6800     6.0830     4.4690 c2         1 0RT       0.720100
     22 SAQ          6.9790     7.1950     5.8100 ss         1 0RT      -0.356300
     23 CBA          8.7040     7.5670     5.3530 c3         1 0RT       0.012100
     24 CAA          8.8710     9.0560     5.0450 c3         1 0RT      -0.073100
     25 CAB          9.6610     7.1370     6.4650 c3         1 0RT      -0.073100
     26 CAL          8.9240     6.7230     4.0880 c3         1 0RT       0.145800
     27 NAN          7.7350     5.9750     3.7430 n2         1 0RT      -0.730900
     28 H1           2.9920     1.2510    -0.7210 hc         1 0RT       0.089200
     29 H2           1.5470     1.2500    -1.7420 hc         1 0RT       0.089200
     30 H3           3.0010     2.7360     1.3480 ha         1 0RT       0.162000
     31 H4          -0.8180     7.1660     2.5130 h5         1 0RT       0.065100
     32 H5           2.2360     5.9920     4.9120 h1         1 0RT       0.064200
     33 H6           3.2670     6.9270     3.8140 h1         1 0RT       0.064200
     34 H7           4.5450     6.4180     5.8250 h1         1 0RT       0.068700
     35 H8           4.1540     4.6940     5.6790 h1         1 0RT       0.068700
     36 H9           4.2140     5.8930     1.8840 h1         1 0RT       0.064200
     37 H10          3.8930     4.1850     1.5380 h1         1 0RT       0.064200
     38 H11          5.2520     3.4970     3.4440 h1         1 0RT       0.068700
     39 H12          6.2070     4.6070     2.4420 h1         1 0RT       0.068700
     40 H15          8.6200     9.6370     5.9240 hc         1 0RT       0.046533
     41 H16          8.2130     9.3320     4.2300 hc         1 0RT       0.046533
     42 H17          9.8980     9.2530     4.7630 hc         1 0RT       0.046533
     43 H18         10.6830     7.3190     6.1530 hc         1 0RT       0.046533
     44 H19          9.5280     6.0810     6.6680 hc         1 0RT       0.046533
     45 H20          9.4510     7.7060     7.3630 hc         1 0RT       0.046533
     46 H21          9.1780     7.3800     3.2640 h1         1 0RT       0.068200
     47 H22          9.7390     6.0320     4.2610 h1         1 0RT       0.068200
@<TRIPOS>BOND
     1    19    18 1
     2    19    20 1
     3    18    15 1
     4     3     2 1
     5    27    26 1
     6    27    21 2
     7    15    14 1
     8    15    16 1
     9    13    14 ar
    10    13    12 ar
    11    14     9 ar
    12    20    21 1
    13    20    17 1
    14    12    11 ar
    15    26    23 1
    16     1     2 1
    17    16    17 1
    18    21    22 1
    19     9     8 1
    20     9    10 ar
    21    11    10 ar
    22     2     4 1
    23     2     5 1
    24     8     6 2
    25    10     7 1
    26     6     7 1
    27     6     5 1
    28    25    23 1
    29    23    22 1
    30    23    24 1
    31     5    28 1
    32     5    29 1
    33     8    30 1
    34    12    31 1
    35    16    32 1
    36    16    33 1
    37    17    34 1
    38    17    35 1
    39    18    36 1
    40    18    37 1
    41    19    38 1
    42    19    39 1
    43    24    40 1
    44    24    41 1
    45    24    42 1
    46    25    43 1
    47    25    44 1
    48    25    45 1
    49    26    46 1
    50    26    47 1
@<TRIPOS>SUBSTRUCTURE
     1 0RT         1 TEMP              0 ****  ****    0 ROOT
