@<TRIPOS>MOLECULE
0RT
   47    50     1     0     0
SMALL
bcc


@<TRIPOS>ATOM
      1 FAC          0.0000     0.0000     0.0000 f          1 0RT      -0.205300
      2 CAZ          1.3990     0.0000     0.0000 c3         1 0RT       0.571900
      3 FAD          1.8660     0.0000     1.3180 f          1 0RT      -0.205300
      4 FAE          1.8650    -1.1420    -0.6610 f          1 0RT      -0.205300
      5 CAM          1.9080     1.2500    -0.7210 c3         1 0RT       0.011800
      6 CAT          1.4050     2.4800    -0.0100 cc         1 0RT      -0.033600
      7 SAR         -0.1070     3.2870    -0.3790 ss         1 0RT      -0.249900
      8 CAG          2.0460     3.0830     0.9730 cd         1 0RT      -0.050200
      9 C5           1.3700     4.2490     1.5140 ca         1 0RT      -0.345400
     10 C4           0.1600     4.5020     0.8630 ca         1 0RT       0.545600
     11 N3          -0.5820     5.5470     1.2500 nb         1 0RT      -0.606000
     12 C2          -0.1890     6.3320     2.2250 ca         1 0RT       0.670900
     13 N1           0.9480     6.1360     2.8720 nb         1 0RT      -0.688000
     14 C6           1.7510     5.1310     2.5580 ca         1 0RT       0.573200
     15 NAY          2.9370     4.9380     3.2430 nh         1 0RT      -0.449300
     16 CAK          3.1160     5.9610     4.2820 c3         1 0RT       0.112300
     17 CAI          4.3410     5.6110     5.1330 c3         1 0RT       0.168300
     18 CAJ          4.0790     4.9110     2.3200 c3         1 0RT       0.112300
     19 CAH          5.3440     4.5170     3.0910 c3         1 0RT       0.168300
     20 NAX          5.4940     5.4250     4.2380 nh         1 0RT      -0.404600
     21 CAS          6.6800     6.0830     4.4690 c2         1 0RT       0.562100
     22 SAQ          6.9790     7.1950     5.8100 ss         1 0RT      -0.379300
     23 CBA          8.7040     7.5670     5.3530 c3         1 0RT       0.032100
     24 CAA          8.8710     9.0560     5.0450 c3         1 0RT       0.023400
     25 CAB          9.6610     7.1370     6.4650 c3         1 0RT       0.023400
     26 CAL          8.9240     6.7230     4.0880 c3         1 0RT       0.172800
     27 NAN          7.7350     5.9750     3.7430 n2         1 0RT      -0.659900
     28 H1           2.9920     1.2510    -0.7210 hc         1 0RT       0.058200
     29 H2           1.5470     1.2500    -1.7420 hc         1 0RT       0.058200
     30 H3           3.0010     2.7360     1.3480 ha         1 0RT       0.140000
     31 H4          -0.8180     7.1660     2.5130 h5         1 0RT       0.003100
     32 H5           2.2360     5.9920     4.9120 h1         1 0RT       0.038200
     33 H6           3.2670     6.9270     3.8140 h1         1 0RT       0.038200
     34 H7           4.5450     6.4180     5.8250 h1         1 0RT       0.040200
     35 H8           4.1540     4.6940     5.6790 h1         1 0RT       0.040200
     36 H9           4.2140     5.8930     1.8840 h1         1 0RT       0.038200
     37 H10          3.8930     4.1850     1.5380 h1         1 0RT       0.038200
     38 H11          5.2520     3.4970     3.4440 h1         1 0RT       0.040200
     39 H12          6.2070     4.6070     2.4420 h1         1 0RT       0.040200
     40 H15          8.6200     9.6370     5.9240 hc         1 0RT       0.015533
     41 H16          8.2130     9.3320     4.2300 hc         1 0RT       0.015533
     42 H17          9.8980     9.2530     4.7630 hc         1 0RT       0.015533
     43 H18         10.6830     7.3190     6.1530 hc         1 0RT       0.015533
     44 H19          9.5280     6.0810     6.6680 hc         1 0RT       0.015533
     45 H20          9.4510     7.7060     7.3630 hc         1 0RT       0.015533
     46 H21          9.1780     7.3800     3.2640 h1         1 0RT       0.035200
     47 H22          9.7390     6.0320     4.2610 h1         1 0RT       0.035200
@<TRIPOS>BOND
     1     1     2 1   
     2     2     3 1   
     3     2     4 1   
     4     2     5 1   
     5     5     6 1   
     6     5    28 1   
     7     5    29 1   
     8     6     7 1   
     9     6     8 2   
    10     7    10 1   
    11     8     9 1   
    12     8    30 1   
    13     9    10 ar  
    14     9    14 ar  
    15    10    11 ar  
    16    11    12 ar  
    17    12    13 ar  
    18    12    31 1   
    19    13    14 ar  
    20    14    15 1   
    21    15    16 1   
    22    15    18 1   
    23    16    17 1   
    24    16    32 1   
    25    16    33 1   
    26    17    20 1   
    27    17    34 1   
    28    17    35 1   
    29    18    19 1   
    30    18    36 1   
    31    18    37 1   
    32    19    20 1   
    33    19    38 1   
    34    19    39 1   
    35    20    21 1   
    36    21    22 1   
    37    21    27 2   
    38    22    23 1   
    39    23    24 1   
    40    23    25 1   
    41    23    26 1   
    42    24    40 1   
    43    24    41 1   
    44    24    42 1   
    45    25    43 1   
    46    25    44 1   
    47    25    45 1   
    48    26    27 1   
    49    26    46 1   
    50    26    47 1   
@<TRIPOS>SUBSTRUCTURE
     1 0RT         1 TEMP              0 ****  ****    0 ROOT
