@<TRIPOS>MOLECULE
0RT
   47    50     1     0     0
SMALL
bcc


@<TRIPOS>ATOM
      1 FAC          0.9800     0.2080     1.2820 f          1 0RT      -0.237300
      2 CAZ          1.9940    -0.3030     0.5160 c3         1 0RT       0.628900
      3 FAD          2.9790    -0.6430     1.4080 f          1 0RT      -0.237300
      4 FAE          2.5020     0.7870    -0.1500 f          1 0RT      -0.237300
      5 CAM          1.5760    -1.4440    -0.4580 c3         1 0RT      -0.038200
      6 CAT          1.0120    -2.6170     0.2190 cc         1 0RT      -0.164600
      7 SAR         -0.5560    -3.1510    -0.1200 ss         1 0RT       0.026100
      8 CAG          1.6570    -3.4120     1.1370 cd         1 0RT      -0.068200
      9 C5           0.8400    -4.5020     1.5690 ca         1 0RT      -0.346400
     10 C4          -0.4510    -4.4580     0.9430 ca         1 0RT       0.437600
     11 N3          -1.4390    -5.3520     1.2140 nb         1 0RT      -0.692000
     12 C2          -1.1130    -6.2790     2.1360 ca         1 0RT       0.676900
     13 N1           0.0690    -6.4450     2.7950 nb         1 0RT      -0.769000
     14 C6           1.0760    -5.5630     2.5170 ca         1 0RT       0.722200
     15 NAY          2.2950    -5.6380     3.2100 nh         1 0RT      -0.750300
     16 CAK          3.5230    -5.4290     2.4650 c3         1 0RT       0.184800
     17 CAI          4.5670    -6.5510     2.6430 c3         1 0RT       0.176800
     18 CAJ          2.4000    -6.5830     4.3110 c3         1 0RT       0.184800
     19 CAH          3.7960    -6.5710     4.9690 c3         1 0RT       0.176800
     20 NAX          4.8860    -6.7980     4.0390 nh         1 0RT      -0.700600
     21 CAS          5.7980    -7.8320     4.2720 c2         1 0RT       0.659100
     22 SAQ          6.9310    -8.2260     2.9550 ss         1 0RT      -0.334300
     23 CBA          7.8200    -9.4210     3.9910 c3         1 0RT       0.020100
     24 CAA          7.7370   -10.7830     3.3490 c3         1 0RT      -0.083100
     25 CAB          9.2550    -8.9770     4.1320 c3         1 0RT      -0.083100
     26 CAL          7.0870    -9.3980     5.3610 c3         1 0RT       0.113800
     27 NAN          5.9710    -8.4900     5.3930 n2         1 0RT      -0.653900
     28 H1           2.4990    -1.7300    -1.0310 hc         1 0RT       0.090200
     29 H2           0.8370    -1.0000    -1.1770 hc         1 0RT       0.090200
     30 H3           2.6620    -3.2100     1.5240 ha         1 0RT       0.169000
     31 H4          -1.9020    -7.0190     2.3930 h5         1 0RT       0.057100
     32 H5           3.9660    -4.4550     2.8250 h1         1 0RT       0.066700
     33 H6           3.3190    -5.3450     1.3600 h1         1 0RT       0.066700
     34 H7           4.1930    -7.4880     2.1380 h1         1 0RT       0.070450
     35 H8           5.5150    -6.2260     2.1220 h1         1 0RT       0.070450
     36 H9           2.1650    -7.6330     3.9720 h1         1 0RT       0.066700
     37 H10          1.6440    -6.2890     5.0920 h1         1 0RT       0.066700
     38 H11          3.7750    -7.3370     5.7930 h1         1 0RT       0.070450
     39 H12          3.9820    -5.5620     5.4370 h1         1 0RT       0.070450
     40 H15          8.2200   -10.7710     2.3420 hc         1 0RT       0.048033
     41 H16          6.6730   -11.1020     3.2300 hc         1 0RT       0.048033
     42 H17          8.2650   -11.5370     3.9840 hc         1 0RT       0.048033
     43 H18          9.7560    -8.9510     3.1340 hc         1 0RT       0.048033
     44 H19          9.8130    -9.6900     4.7880 hc         1 0RT       0.048033
     45 H20          9.3110    -7.9580     4.5860 hc         1 0RT       0.048033
     46 H21          6.7030   -10.4280     5.6070 h1         1 0RT       0.073200
     47 H22          7.8070    -9.0970     6.1730 h1         1 0RT       0.073200
@<TRIPOS>BOND
     1     1     2 1   
     2     2     3 1   
     3     2     4 1   
     4     2     5 1   
     5     5     6 1   
     6     5    28 1   
     7     5    29 1   
     8     6     7 1   
     9     6     8 2   
    10     7    10 1   
    11     8     9 1   
    12     8    30 1   
    13     9    10 ar  
    14     9    14 ar  
    15    10    11 ar  
    16    11    12 ar  
    17    12    13 ar  
    18    12    31 1   
    19    13    14 ar  
    20    14    15 1   
    21    15    16 1   
    22    15    18 1   
    23    16    17 1   
    24    16    32 1   
    25    16    33 1   
    26    17    20 1   
    27    17    34 1   
    28    17    35 1   
    29    18    19 1   
    30    18    36 1   
    31    18    37 1   
    32    19    20 1   
    33    19    38 1   
    34    19    39 1   
    35    20    21 1   
    36    21    22 1   
    37    21    27 2   
    38    22    23 1   
    39    23    24 1   
    40    23    25 1   
    41    23    26 1   
    42    24    40 1   
    43    24    41 1   
    44    24    42 1   
    45    25    43 1   
    46    25    44 1   
    47    25    45 1   
    48    26    27 1   
    49    26    46 1   
    50    26    47 1   
@<TRIPOS>SUBSTRUCTURE
     1 0RT         1 TEMP              0 ****  ****    0 ROOT
