@<TRIPOS>MOLECULE
0RU
   32    34     1     0     0
SMALL
bcc


@<TRIPOS>ATOM
      1 NAJ          0.0000     0.0000     0.0000 nb         1 0RU      -0.627500
      2 CAE          1.3220     0.0000     0.0000 ca         1 0RU       0.457700
      3 CAC          1.9980     0.0000     1.2100 ca         1 0RU      -0.360600
      4 CAF          1.2590     0.0000     2.3830 ca         1 0RU       0.457700
      5 NAK         -0.0620     0.0010     2.3120 nb         1 0RU      -0.627500
      6 CAQ         -0.6780     0.0000     1.1390 ca         1 0RU       0.726300
      7 SAN         -2.4390     0.0010     1.0930 ss         1 0RU      -0.285400
      8 CAI         -2.7070     0.0000    -0.6980 c3         1 0RU       0.032400
      9 CAP         -4.1860     0.0010    -0.9860 cc         1 0RU       0.477200
     10 NAL         -4.5850     0.0000    -2.2690 na         1 0RU      -0.200600
     11 CAT         -5.9300     0.0010    -2.5840 ca         1 0RU       0.000600
     12 CAO         -6.3760     0.0000    -3.8980 ca         1 0RU      -0.143300
     13 CAA         -5.3870     0.0000    -5.0340 c3         1 0RU       0.066200
     14 CAG         -7.7300     0.0000    -4.1590 ca         1 0RU      -0.043000
     15 CAD         -8.6520    -0.0000    -3.1220 ca         1 0RU      -0.135000
     16 CAH         -8.2280     0.0010    -1.8100 ca         1 0RU      -0.001000
     17 CAS         -6.8640    -0.0000    -1.5320 ca         1 0RU      -0.214600
     18 CAR         -6.3460    -0.0000    -0.1510 c          1 0RU       0.727100
     19 OAB         -7.1050    -0.0000     0.8030 o          1 0RU      -0.570100
     20 NAM         -5.0120    -0.0040     0.0250 nd         1 0RU      -0.611100
     21 H1           1.8710    -0.0000    -0.9340 h4         1 0RU      -0.014400
     22 H2           3.0810    -0.0000     1.2390 ha         1 0RU       0.125000
     23 H3           1.7570     0.0000     3.3450 h4         1 0RU      -0.014400
     24 H4          -2.2540     0.8840    -1.1310 h1         1 0RU       0.056700
     25 H5          -2.2550    -0.8850    -1.1300 h1         1 0RU       0.056700
     26 H6          -3.9030    -0.0010    -3.0020 hn         1 0RU       0.289800
     27 H7          -5.9200     0.0000    -5.9770 hc         1 0RU       0.009033
     28 H8          -4.7650    -0.8850    -4.9710 hc         1 0RU       0.009033
     29 H9          -4.7640     0.8840    -4.9710 hc         1 0RU       0.009033
     30 H10         -8.0780    -0.0010    -5.1850 ha         1 0RU       0.107000
     31 H11         -9.7120    -0.0000    -3.3440 ha         1 0RU       0.111000
     32 H12         -8.9500     0.0010    -1.0030 ha         1 0RU       0.129000
@<TRIPOS>BOND
     1     1     2 ar  
     2     1     6 ar  
     3     2     3 ar  
     4     2    21 1   
     5     3     4 ar  
     6     3    22 1   
     7     4     5 ar  
     8     4    23 1   
     9     5     6 ar  
    10     6     7 1   
    11     7     8 1   
    12     8     9 1   
    13     8    24 1   
    14     8    25 1   
    15     9    10 1   
    16     9    20 2   
    17    10    11 1   
    18    10    26 1   
    19    11    12 ar  
    20    11    17 ar  
    21    12    13 1   
    22    12    14 ar  
    23    13    27 1   
    24    13    28 1   
    25    13    29 1   
    26    14    15 ar  
    27    14    30 1   
    28    15    16 ar  
    29    15    31 1   
    30    16    17 ar  
    31    16    32 1   
    32    17    18 1   
    33    18    19 2   
    34    18    20 1   
@<TRIPOS>SUBSTRUCTURE
     1 0RU         1 TEMP              0 ****  ****    0 ROOT
