@<TRIPOS>MOLECULE
molecule
   32    34     1     0     0
SMALL
bcc


@<TRIPOS>ATOM
      1 NAJ          0.0000     0.0000     0.0000 nb         1 0RU      -0.743500
      2 CAE          1.3220     0.0000     0.0000 ca         1 0RU       0.471200
      3 CAC          1.9980     0.0000     1.2100 ca         1 0RU      -0.399600
      4 CAF          1.2590     0.0000     2.3830 ca         1 0RU       0.471200
      5 NAK         -0.0620     0.0010     2.3120 nb         1 0RU      -0.743500
      6 CAQ         -0.6780     0.0000     1.1390 ca         1 0RU       0.754300
      7 SAN         -2.4390     0.0010     1.0930 ss         1 0RU      -0.106400
      8 CAI         -2.7070     0.0000    -0.6980 c3         1 0RU      -0.083600
      9 CAP         -4.1860     0.0010    -0.9860 cc         1 0RU       0.698200
     10 NAL         -4.5850     0.0000    -2.2690 na         1 0RU      -0.696600
     11 CAT         -5.9300     0.0010    -2.5840 ca         1 0RU       0.163600
     12 CAO         -6.3760     0.0000    -3.8980 ca         1 0RU      -0.137300
     13 CAA         -5.3870     0.0000    -5.0340 c3         1 0RU      -0.048800
     14 CAG         -7.7300     0.0000    -4.1590 ca         1 0RU      -0.073000
     15 CAD         -8.6520    -0.0000    -3.1220 ca         1 0RU      -0.162000
     16 CAH         -8.2280     0.0010    -1.8100 ca         1 0RU      -0.039000
     17 CAS         -6.8640    -0.0000    -1.5320 ca         1 0RU      -0.215600
     18 CAR         -6.3460    -0.0000    -0.1510 c          1 0RU       0.725100
     19 OAB         -7.1050    -0.0000     0.8030 o          1 0RU      -0.535100
     20 NAM         -5.0120    -0.0040     0.0250 nd         1 0RU      -0.724100
     21 H1           1.8710    -0.0000    -0.9340 h4         1 0RU       0.031100
     22 H2           3.0810    -0.0000     1.2390 ha         1 0RU       0.146000
     23 H3           1.7570     0.0000     3.3450 h4         1 0RU       0.031100
     24 H4          -2.2540     0.8840    -1.1310 h1         1 0RU       0.094700
     25 H5          -2.2550    -0.8850    -1.1300 h1         1 0RU       0.094700
     26 H6          -3.9030    -0.0010    -3.0020 hn         1 0RU       0.454800
     27 H7          -5.9200     0.0000    -5.9770 hc         1 0RU       0.044700
     28 H8          -4.7650    -0.8850    -4.9710 hc         1 0RU       0.044700
     29 H9          -4.7640     0.8840    -4.9710 hc         1 0RU       0.044700
     30 H10         -8.0780    -0.0010    -5.1850 ha         1 0RU       0.137000
     31 H11         -9.7120    -0.0000    -3.3440 ha         1 0RU       0.139000
     32 H12         -8.9500     0.0010    -1.0030 ha         1 0RU       0.162000
@<TRIPOS>BOND
     1     4     3 ar  
     2     4     5 ar  
     3     3     2 ar  
     4     5     6 ar  
     5     2     1 ar  
     6     6     1 ar  
     7     6     7 1   
     8     7     8 1   
     9     8     9 1   
    10     9    10 1   
    11     9    20 2   
    12    10    11 1   
    13    20    18 1   
    14    13    12 1   
    15    11    12 ar  
    16    11    17 ar  
    17    18    17 1   
    18    18    19 2   
    19    12    14 ar  
    20    17    16 ar  
    21    14    15 ar  
    22    16    15 ar  
    23     2    21 1   
    24     3    22 1   
    25     4    23 1   
    26     8    24 1   
    27     8    25 1   
    28    10    26 1   
    29    13    27 1   
    30    13    28 1   
    31    13    29 1   
    32    14    30 1   
    33    15    31 1   
    34    16    32 1   
@<TRIPOS>SUBSTRUCTURE
     1 0RU         1 TEMP              0 ****  ****    0 ROOT
