@<TRIPOS>MOLECULE
0RU
   32    34     1     0     0
SMALL
bcc


@<TRIPOS>ATOM
      1 NAJ         -0.6760     0.5260     0.1080 nb         1 0RU      -0.692500
      2 CAE          0.5550     0.0750    -0.1930 ca         1 0RU       0.442700
      3 CAC          1.2240    -0.8930     0.5820 ca         1 0RU      -0.368600
      4 CAF          0.5370    -1.3810     1.7090 ca         1 0RU       0.442700
      5 NAK         -0.6960    -0.9550     2.0440 nb         1 0RU      -0.692500
      6 CAQ         -1.2590    -0.0100     1.2290 ca         1 0RU       0.705300
      7 SAN         -2.8360     0.5930     1.5940 ss         1 0RU      -0.197400
      8 CAI         -3.3460    -0.2080     3.0760 c3         1 0RU      -0.097600
      9 CAP         -3.8510    -1.6320     2.9400 cc         1 0RU       0.680200
     10 NAL         -4.3090    -2.0120     1.6750 na         1 0RU      -0.726600
     11 CAT         -4.7910    -3.3060     1.4770 ca         1 0RU       0.181600
     12 CAO         -5.2390    -3.7490     0.2030 ca         1 0RU      -0.135300
     13 CAA         -5.1970    -2.8490    -0.9730 c3         1 0RU      -0.053800
     14 CAG         -5.7200    -5.0500     0.0780 ca         1 0RU      -0.073000
     15 CAD         -5.7690    -5.9180     1.1710 ca         1 0RU      -0.170000
     16 CAH         -5.3310    -5.4920     2.4180 ca         1 0RU      -0.043000
     17 CAS         -4.8400    -4.1920     2.5840 ca         1 0RU      -0.215600
     18 CAR         -4.3620    -3.7240     3.9100 c          1 0RU       0.706100
     19 OAB         -4.3860    -4.4570     4.9120 o          1 0RU      -0.539100
     20 NAM         -3.8690    -2.3980     4.0100 nd         1 0RU      -0.682100
     21 H1           1.0200     0.5120    -1.0960 h4         1 0RU       0.036100
     22 H2           2.2270    -1.2470     0.3210 ha         1 0RU       0.160000
     23 H3           0.9810    -2.1440     2.3750 h4         1 0RU       0.036100
     24 H4          -4.2010     0.4280     3.4370 h1         1 0RU       0.125700
     25 H5          -2.5470    -0.1790     3.8630 h1         1 0RU       0.125700
     26 H6          -4.2060    -1.3940     0.8980 hn         1 0RU       0.465800
     27 H7          -5.5890    -3.3640    -1.8850 hc         1 0RU       0.046367
     28 H8          -5.8240    -1.9380    -0.7960 hc         1 0RU       0.046367
     29 H9          -4.1480    -2.5220    -1.1850 hc         1 0RU       0.046367
     30 H10         -6.0700    -5.4000    -0.9060 ha         1 0RU       0.136000
     31 H11         -6.1560    -6.9390     1.0410 ha         1 0RU       0.141000
     32 H12         -5.3600    -6.1600     3.2950 ha         1 0RU       0.162000
@<TRIPOS>BOND
     1     1     2 ar  
     2     1     6 ar  
     3     2     3 ar  
     4     2    21 1   
     5     3     4 ar  
     6     3    22 1   
     7     4     5 ar  
     8     4    23 1   
     9     5     6 ar  
    10     6     7 1   
    11     7     8 1   
    12     8     9 1   
    13     8    24 1   
    14     8    25 1   
    15     9    10 1   
    16     9    20 2   
    17    10    11 1   
    18    10    26 1   
    19    11    12 ar  
    20    11    17 ar  
    21    12    13 1   
    22    12    14 ar  
    23    13    27 1   
    24    13    28 1   
    25    13    29 1   
    26    14    15 ar  
    27    14    30 1   
    28    15    16 ar  
    29    15    31 1   
    30    16    17 ar  
    31    16    32 1   
    32    17    18 1   
    33    18    19 2   
    34    18    20 1   
@<TRIPOS>SUBSTRUCTURE
     1 0RU         1 TEMP              0 ****  ****    0 ROOT
