@<TRIPOS>MOLECULE
0RV
   50    51     1     0     0
SMALL
bcc


@<TRIPOS>ATOM
      1 O            0.0000     0.0000     0.0000 o          1 0RV      -0.633100
      2 C            1.2130     0.0000     0.0000 c          1 0RV       0.593100
      3 NAY          1.8870     0.0000     1.1670 n          1 0RV      -0.193800
      4 CAC          1.1540     0.0000     2.4360 c3         1 0RV       0.091300
      5 CAD          3.3520     0.0010     1.1660 c3         1 0RV       0.091300
      6 CA           1.9670    -0.0060    -1.3060 c3         1 0RV       0.040500
      7 CB           2.4530     1.4230    -1.6540 c3         1 0RV      -0.003400
      8 N            1.0660    -0.3790    -2.4170 n7         1 0RV      -0.561200
      9 CD           1.4320     0.4140    -3.6040 c3         1 0RV       0.107800
     10 CG           2.6000     1.3370    -3.1960 c3         1 0RV       0.076400
     11 SAO          2.4160     2.9770    -3.9490 ss         1 0RV      -0.402700
     12 CAT          2.8660     2.6930    -5.6290 ce         1 0RV      -0.021000
     13 CAV          2.0390     2.7770    -6.6790 c2         1 0RV      -0.122400
     14 CAB          0.5730     3.1240    -6.6520 c3         1 0RV       0.080100
     15 CAS          4.2140     2.3330    -6.1020 ce         1 0RV       0.436600
     16 CAP          5.3970     2.1530    -5.2200 c          1 0RV       0.914300
     17 OAE          6.5890     1.8230    -5.7510 o          1 0RV      -0.896300
     18 OAH          5.2890     2.3060    -4.0210 o          1 0RV      -0.896300
     19 NAN          4.2280     2.1920    -7.3910 n2         1 0RV      -0.504900
     20 CAZ          2.8750     2.4520    -7.8970 c3         1 0RV       0.158700
     21 CBA          2.3240     1.2110    -8.6010 c3         1 0RV      -0.128700
     22 CAQ          2.3560     0.0390    -7.6540 c          1 0RV       0.986600
     23 OAF          2.7770     0.1820    -6.5310 o          1 0RV      -0.894800
     24 OAI          1.9160    -1.1630    -8.0590 o          1 0RV      -0.894800
     25 CAU          3.1810     0.8990    -9.8290 c3         1 0RV       0.206100
     26 OAJ          3.1510     2.0090   -10.7270 oh         1 0RV      -0.619800
     27 CAA          2.6290    -0.3420   -10.5340 c3         1 0RV      -0.061100
     28 H1           1.8580    -0.0150     3.2590 h1         1 0RV       0.003700
     29 H2           0.5430     0.8920     2.5000 h1         1 0RV       0.003700
     30 H3           0.5200    -0.8760     2.4860 h1         1 0RV       0.003700
     31 H4           3.7140    -0.1720     2.1730 h1         1 0RV       0.003700
     32 H5           3.7130    -0.7840     0.5130 h1         1 0RV       0.003700
     33 H6           3.7130     0.9590     0.8130 h1         1 0RV       0.003700
     34 H7           2.8070    -0.6880    -1.2590 h1         1 0RV       0.021700
     35 H8           3.4090     1.6290    -1.1870 hc         1 0RV       0.028200
     36 H9           1.7100     2.1610    -1.3780 hc         1 0RV       0.028200
     37 H10          1.1730    -1.3530    -2.6210 hn         1 0RV       0.241800
     38 H12          0.5860     1.0110    -3.9230 h1         1 0RV       0.057700
     39 H13          1.7480    -0.2460    -4.4040 h1         1 0RV       0.057700
     40 H14          3.5500     0.8890    -3.4630 h1         1 0RV       0.111700
     41 H15          0.3790     3.8110    -5.8380 hc         1 0RV      -0.000633
     42 H16          0.2940     3.5880    -7.5910 hc         1 0RV      -0.000633
     43 H17         -0.0100     2.2210    -6.5090 hc         1 0RV      -0.000633
     44 H19          2.8880     3.2970    -8.5740 h1         1 0RV       0.027700
     45 H20          1.3030     1.3970    -8.9110 hc         1 0RV       0.018700
     46 H22          4.2020     0.7130    -9.5180 h1         1 0RV       0.031700
     47 H23          3.8950     1.9670   -11.3050 ho         1 0RV       0.365000
     48 H24          2.4920    -0.1280   -11.5870 hc         1 0RV       0.013033
     49 H25          3.3270    -1.1630   -10.4200 hc         1 0RV       0.013033
     50 H26          1.6770    -0.6140   -10.0940 hc         1 0RV       0.013033
@<TRIPOS>BOND
     1     1     2 2   
     2     2     3 1   
     3     2     6 1   
     4     3     4 1   
     5     3     5 1   
     6     4    28 1   
     7     4    29 1   
     8     4    30 1   
     9     5    31 1   
    10     5    32 1   
    11     5    33 1   
    12     6     7 1   
    13     6     8 1   
    14     6    34 1   
    15     7    10 1   
    16     7    35 1   
    17     7    36 1   
    18     8     9 1   
    19     8    37 1   
    20     9    10 1   
    21     9    38 1   
    22     9    39 1   
    23    10    11 1   
    24    10    40 1   
    25    11    12 1   
    26    12    13 2   
    27    12    15 1   
    28    13    14 1   
    29    13    20 1   
    30    14    41 1   
    31    14    42 1   
    32    14    43 1   
    33    15    16 1   
    34    15    19 2   
    35    16    17 1   
    36    16    18 1   
    37    19    20 1   
    38    20    21 1   
    39    20    44 1   
    40    21    22 1   
    41    21    25 1   
    42    21    45 1   
    43    22    23 1   
    44    22    24 1   
    45    25    26 1   
    46    25    27 1   
    47    25    46 1   
    48    26    47 1   
    49    27    48 1   
    50    27    49 1   
    51    27    50 1   
@<TRIPOS>SUBSTRUCTURE
     1 0RV         1 TEMP              0 ****  ****    0 ROOT
