@<TRIPOS>MOLECULE
0RV
   51    52     1     0     0
SMALL
bcc


@<TRIPOS>ATOM
      1 O            0.7930     1.7170     0.5100 o          1 0RV      -0.641100
      2 C            1.2820     0.7390    -0.1000 c          1 0RV       0.668100
      3 NAY          1.1150    -0.5410     0.3880 n          1 0RV      -0.455800
      4 CAC          0.4860    -0.7390     1.6670 c3         1 0RV       0.075800
      5 CAD          1.7300    -1.7020    -0.1920 c3         1 0RV       0.075800
      6 CA           2.0190     1.0310    -1.4190 c3         1 0RV       0.104500
      7 CB           1.2160     0.5370    -2.6420 c3         1 0RV      -0.074400
      8 N            3.3640     0.4590    -1.4650 n7         1 0RV      -0.807200
      9 CD           3.5140    -0.2980    -2.7060 c3         1 0RV       0.149800
     10 CG           2.2100    -0.2150    -3.5190 c3         1 0RV      -0.040600
     11 SAO          1.4730    -1.7920    -3.8720 ss         1 0RV      -0.196700
     12 CAT          2.3930    -2.4220    -5.1220 ce         1 0RV      -0.223000
     13 CAV          2.3460    -2.1570    -6.4720 c2         1 0RV      -0.003400
     14 CAB          1.5540    -1.1080    -7.1170 c3         1 0RV      -0.068900
     15 CAS          3.4230    -3.4840    -4.9590 ce         1 0RV       0.390600
     16 CAP          3.7550    -4.0530    -3.6400 c          1 0RV       0.598800
     17 OAE          3.2560    -5.0130    -3.0500 o          1 0RV      -0.540000
     18 OAH          4.7640    -3.3980    -2.9900 oh         1 0RV      -0.603100
     19 NAN          3.9850    -3.8470    -6.0860 n2         1 0RV      -0.472900
     20 CAZ          3.3700    -3.0520    -7.1730 c3         1 0RV       0.105700
     21 CBA          2.9290    -3.9430    -8.3380 c3         1 0RV      -0.208700
     22 CAQ          4.1050    -4.1130    -9.3520 c          1 0RV       0.922600
     23 OAF          3.9580    -5.0270   -10.2120 o          1 0RV      -0.826800
     24 OAI          5.0810    -3.3190    -9.2910 o          1 0RV      -0.826800
     25 CAU          1.7140    -3.4630    -9.1360 c3         1 0RV       0.171100
     26 OAJ          1.1180    -4.5740    -9.7940 oh         1 0RV      -0.639800
     27 CAA          2.0880    -2.4050   -10.1640 c3         1 0RV      -0.128100
     28 H1          -0.3500    -1.4820     1.5620 h1         1 0RV       0.045033
     29 H2           1.2290    -1.1390     2.4080 h1         1 0RV       0.045033
     30 H3           0.0680     0.2270     2.0570 h1         1 0RV       0.045033
     31 H4           1.2010    -2.6230     0.1740 h1         1 0RV       0.045033
     32 H5           1.6560    -1.6760    -1.3150 h1         1 0RV       0.045033
     33 H6           2.8130    -1.7710     0.0990 h1         1 0RV       0.045033
     34 H7           2.0680     2.1630    -1.4580 h1         1 0RV       0.064700
     35 H8           0.7790     1.4090    -3.1890 hc         1 0RV       0.067700
     36 H9           0.3660    -0.1240    -2.3320 hc         1 0RV       0.067700
     37 H10          4.0510     1.1850    -1.4000 hn         1 0RV       0.360800
     38 H12          3.7340    -1.3690    -2.4280 h1         1 0RV       0.065200
     39 H13          4.3790     0.0780    -3.3190 h1         1 0RV       0.065200
     40 H14          2.3990     0.3310    -4.4750 h1         1 0RV       0.074700
     41 H15          1.9020    -0.9170    -8.1620 hc         1 0RV       0.059367
     42 H16          1.6260    -0.1520    -6.5360 hc         1 0RV       0.059367
     43 H17          0.4730    -1.4060    -7.1490 hc         1 0RV       0.059367
     44 H19          4.2040    -2.3850    -7.5880 h1         1 0RV       0.165700
     45 H20          2.6770    -4.9700    -7.9520 hc         1 0RV       0.077700
     46 H22          0.9010    -3.0910    -8.4520 h1         1 0RV       0.033700
     47 H23          1.8350    -5.0480   -10.2510 ho         1 0RV       0.444000
     48 H24          1.1960    -1.7970   -10.4440 hc         1 0RV       0.041033
     49 H25          2.4880    -2.9060   -11.0810 hc         1 0RV       0.041033
     50 H26          2.8920    -1.7390    -9.7690 hc         1 0RV       0.041033
     51 HAY1         4.9360    -3.8410    -2.1440 ho         1 0RV       0.434000
@<TRIPOS>BOND
     1     1     2 2   
     2     2     3 1   
     3     2     6 1   
     4     3     4 1   
     5     3     5 1   
     6     4    28 1   
     7     4    29 1   
     8     4    30 1   
     9     5    31 1   
    10     5    32 1   
    11     5    33 1   
    12     6     7 1   
    13     6     8 1   
    14     6    34 1   
    15     7    10 1   
    16     7    35 1   
    17     7    36 1   
    18     8     9 1   
    19     8    37 1   
    20     9    10 1   
    21     9    38 1   
    22     9    39 1   
    23    10    11 1   
    24    10    40 1   
    25    11    12 1   
    26    12    13 2   
    27    12    15 1   
    28    13    14 1   
    29    13    20 1   
    30    14    41 1   
    31    14    42 1   
    32    14    43 1   
    33    15    16 1   
    34    15    19 2   
    35    16    17 2   
    36    16    18 1   
    37    18    51 1   
    38    19    20 1   
    39    20    21 1   
    40    20    44 1   
    41    21    22 1   
    42    21    25 1   
    43    21    45 1   
    44    22    23 1   
    45    22    24 1   
    46    25    26 1   
    47    25    27 1   
    48    25    46 1   
    49    26    47 1   
    50    27    48 1   
    51    27    49 1   
    52    27    50 1   
@<TRIPOS>SUBSTRUCTURE
     1 0RV         1 TEMP              0 ****  ****    0 ROOT
