@<TRIPOS>MOLECULE
molecule
   50    51     1     0     0
SMALL
bcc


@<TRIPOS>ATOM
      1 O            0.0000     0.0000     0.0000 o          1 0RV      -0.594100
      2 C            1.2130     0.0000     0.0000 c          1 0RV       0.666100
      3 NAY          1.8870     0.0000     1.1670 n          1 0RV      -0.515800
      4 CAC          1.1540     0.0000     2.4360 c3         1 0RV       0.103800
      5 CAD          3.3520     0.0010     1.1660 c3         1 0RV       0.103800
      6 CA           1.9670    -0.0060    -1.3060 c3         1 0RV       0.084500
      7 CB           2.4530     1.4230    -1.6540 c3         1 0RV      -0.060400
      8 N            1.0660    -0.3790    -2.4170 n7         1 0RV      -0.796200
      9 CD           1.4320     0.4140    -3.6040 c3         1 0RV       0.139800
     10 CG           2.6000     1.3370    -3.1960 c3         1 0RV       0.029400
     11 SAO          2.4160     2.9770    -3.9490 ss         1 0RV      -0.325700
     12 CAT          2.8660     2.6930    -5.6290 ce         1 0RV      -0.050000
     13 CAV          2.0390     2.7770    -6.6790 c2         1 0RV      -0.118400
     14 CAB          0.5730     3.1240    -6.6520 c3         1 0RV      -0.024900
     15 CAS          4.2140     2.3330    -6.1020 ce         1 0RV       0.444600
     16 CAP          5.3970     2.1530    -5.2200 c          1 0RV       0.825300
     17 OAE          6.5890     1.8230    -5.7510 o          1 0RV      -0.843300
     18 OAH          5.2890     2.3060    -4.0210 o          1 0RV      -0.843300
     19 NAN          4.2280     2.1920    -7.3910 n2         1 0RV      -0.542900
     20 CAZ          2.8750     2.4520    -7.8970 c3         1 0RV       0.128700
     21 CBA          2.3240     1.2110    -8.6010 c3         1 0RV      -0.129700
     22 CAQ          2.3560     0.0390    -7.6540 c          1 0RV       0.897600
     23 OAF          2.7770     0.1820    -6.5310 o          1 0RV      -0.846800
     24 OAI          1.9160    -1.1630    -8.0590 o          1 0RV      -0.846800
     25 CAU          3.1810     0.8990    -9.8290 c3         1 0RV       0.161100
     26 OAJ          3.1510     2.0090   -10.7270 oh         1 0RV      -0.638800
     27 CAA          2.6290    -0.3420   -10.5340 c3         1 0RV      -0.115100
     28 H1           1.8580    -0.0150     3.2590 h1         1 0RV       0.033033
     29 H2           0.5430     0.8920     2.5000 h1         1 0RV       0.033033
     30 H3           0.5200    -0.8760     2.4860 h1         1 0RV       0.033033
     31 H4           3.7140    -0.1720     2.1730 h1         1 0RV       0.033033
     32 H5           3.7130    -0.7840     0.5130 h1         1 0RV       0.033033
     33 H6           3.7130     0.9590     0.8130 h1         1 0RV       0.033033
     34 H7           2.8070    -0.6880    -1.2590 h1         1 0RV       0.038700
     35 H8           3.4090     1.6290    -1.1870 hc         1 0RV       0.054200
     36 H9           1.7100     2.1610    -1.3780 hc         1 0RV       0.054200
     37 H10          1.1730    -1.3530    -2.6210 hn         1 0RV       0.342800
     38 H12          0.5860     1.0110    -3.9230 h1         1 0RV       0.082700
     39 H13          1.7480    -0.2460    -4.4040 h1         1 0RV       0.082700
     40 H14          3.5500     0.8890    -3.4630 h1         1 0RV       0.129700
     41 H15          0.3790     3.8110    -5.8380 hc         1 0RV       0.030367
     42 H16          0.2940     3.5880    -7.5910 hc         1 0RV       0.030367
     43 H17         -0.0100     2.2210    -6.5090 hc         1 0RV       0.030367
     44 H19          2.8880     3.2970    -8.5740 h1         1 0RV       0.059700
     45 H20          1.3030     1.3970    -8.9110 hc         1 0RV       0.037700
     46 H22          4.2020     0.7130    -9.5180 h1         1 0RV       0.061700
     47 H23          3.8950     1.9670   -11.3050 ho         1 0RV       0.374000
     48 H24          2.4920    -0.1280   -11.5870 hc         1 0RV       0.034367
     49 H25          3.3270    -1.1630   -10.4200 hc         1 0RV       0.034367
     50 H26          1.6770    -0.6140   -10.0940 hc         1 0RV       0.034367
@<TRIPOS>BOND
     1    14    13 1
     2    27    25 1
     3    25    26 1
     4    25    21 1
     5     6     7 1
     6     6     8 1
     7     6     2 1
     8     7    10 1
     9    20    13 1
    10    20    21 1
    11    20    19 1
    12    13    12 2
    13    10     9 1
    14    10    11 1
    15     8     9 1
    16     2     1 2
    17     2     3 1
    18     5     3 1
    19     3     4 1
    20    21    22 1
    21    19    15 2
    22    12    11 1
    23    12    15 1
    24    15    16 1
    25    22    23 1
    26    22    24 1
    27    16    18 1
    28    16    17 1
    29     4    28 1
    30     4    29 1
    31     4    30 1
    32     5    31 1
    33     5    32 1
    34     5    33 1
    35     6    34 1
    36     7    35 1
    37     7    36 1
    38     8    37 1
    39     9    38 1
    40     9    39 1
    41    10    40 1
    42    14    41 1
    43    14    42 1
    44    14    43 1
    45    20    44 1
    46    21    45 1
    47    25    46 1
    48    26    47 1
    49    27    48 1
    50    27    49 1
    51    27    50 1
@<TRIPOS>SUBSTRUCTURE
     1 0RV         1 TEMP              0 ****  ****    0 ROOT
