@<TRIPOS>MOLECULE
molecule
   18    19     1     0     0
SMALL
bcc


@<TRIPOS>ATOM
      1 C1           0.0000     0.0000     0.0000 ca         1 0RW      -0.166000
      2 C2           1.3570     0.0000     0.0000 ca         1 0RW      -0.057000
      3 C3           2.0540     0.0000     1.2270 ca         1 0RW      -0.194000
      4 C4           1.2810    -0.0020     2.4790 ca         1 0RW      -0.030000
      5 C5          -0.1290    -0.0030     2.4030 ca         1 0RW      -0.110000
      6 C6          -0.7340     0.0040     1.1890 ca         1 0RW      -0.098000
      7 C11          3.3870     0.0010     1.5910 cc         1 0RW      -0.064300
      8 N12          3.4490    -0.0000     2.9290 na         1 0RW       0.022800
      9 N13          2.1560    -0.0020     3.4680 nc         1 0RW      -0.277400
     10 C14          4.5630     0.0000     0.6490 c3         1 0RW      -0.031900
     11 H1          -0.5280     0.0060    -0.9460 ha         1 0RW       0.126000
     12 H2           1.9020    -0.0030    -0.9360 ha         1 0RW       0.124000
     13 H3          -0.7240     0.0000     3.3080 ha         1 0RW       0.139000
     14 H4          -1.8160     0.0040     1.1390 ha         1 0RW       0.128000
     15 H5           4.2940    -0.0000     3.4650 hn         1 0RW       0.328700
     16 H6           4.5240     0.8830     0.0230 hc         1 0RW       0.054033
     17 H7           5.4830     0.0040     1.2210 hc         1 0RW       0.054033
     18 H8           4.5270    -0.8860     0.0270 hc         1 0RW       0.054033
@<TRIPOS>BOND
     1     6     5 ar  
     2     6     1 ar  
     3     5     4 ar  
     4     1     2 ar  
     5     4     9 2   
     6     4     3 ar  
     7     9     8 1   
     8     2     3 ar  
     9     3     7 2   
    10     8     7 1   
    11     7    10 1   
    12     1    11 1   
    13     2    12 1   
    14     5    13 1   
    15     6    14 1   
    16     8    15 1   
    17    10    16 1   
    18    10    17 1   
    19    10    18 1   
@<TRIPOS>SUBSTRUCTURE
     1 0RW         1 TEMP              0 ****  ****    0 ROOT
