@<TRIPOS>MOLECULE
0RW
   18    19     1     0     0
SMALL
bcc


@<TRIPOS>ATOM
      1 C1           0.0340     0.0970    -0.0080 ca         1 0RW      -0.145000
      2 C2           1.4030     0.0700    -0.0650 ca         1 0RW      -0.079000
      3 C3           2.1300     0.0140     1.1430 ca         1 0RW      -0.128000
      4 C4           1.4200    -0.0140     2.4250 ca         1 0RW      -0.077000
      5 C5          -0.0040     0.0150     2.4370 ca         1 0RW      -0.092000
      6 C6          -0.6610     0.0690     1.2380 ca         1 0RW      -0.124000
      7 C11          3.5030    -0.0260     1.4920 cc         1 0RW      -0.110300
      8 N12          3.5290    -0.0730     2.8870 na         1 0RW       0.051800
      9 N13          2.3300    -0.0680     3.4570 nc         1 0RW      -0.276400
     10 C14          4.6940    -0.0220     0.6310 c3         1 0RW      -0.034900
     11 H1          -0.5600     0.1400    -0.9320 ha         1 0RW       0.129000
     12 H2           1.9420     0.0910    -1.0220 ha         1 0RW       0.129000
     13 H3          -0.5390    -0.0060     3.3960 ha         1 0RW       0.143000
     14 H4          -1.7620     0.0930     1.2140 ha         1 0RW       0.130000
     15 H5           4.3450    -0.1100     3.4550 hn         1 0RW       0.319700
     16 H6           5.3430     0.8640     0.8460 hc         1 0RW       0.054367
     17 H7           5.3020    -0.9500     0.7810 hc         1 0RW       0.054367
     18 H8           4.3720     0.0240    -0.4390 hc         1 0RW       0.054367
@<TRIPOS>BOND
     1     1     2 ar  
     2     1     6 ar  
     3     1    11 1   
     4     2     3 ar  
     5     2    12 1   
     6     3     4 ar  
     7     3     7 2   
     8     4     5 ar  
     9     4     9 2   
    10     5     6 ar  
    11     5    13 1   
    12     6    14 1   
    13     7     8 1   
    14     7    10 1   
    15     8     9 1   
    16     8    15 1   
    17    10    16 1   
    18    10    17 1   
    19    10    18 1   
@<TRIPOS>SUBSTRUCTURE
     1 0RW         1 TEMP              0 ****  ****    0 ROOT
