@<TRIPOS>MOLECULE
0RW
   18    19     1     0     0
SMALL
bcc


@<TRIPOS>ATOM
      1 C1           0.0000     0.0000     0.0000 ca         1 0RW      -0.143000
      2 C2           1.3570     0.0000     0.0000 ca         1 0RW      -0.024000
      3 C3           2.0540     0.0000     1.2270 ca         1 0RW      -0.198000
      4 C4           1.2810    -0.0020     2.4790 ca         1 0RW       0.004000
      5 C5          -0.1290    -0.0030     2.4030 ca         1 0RW      -0.086000
      6 C6          -0.7340     0.0040     1.1890 ca         1 0RW      -0.073000
      7 C11          3.3870     0.0010     1.5910 cc         1 0RW      -0.261300
      8 N12          3.4490    -0.0000     2.9290 na         1 0RW       0.553800
      9 N13          2.1560    -0.0020     3.4680 nc         1 0RW      -0.449400
     10 C14          4.5630     0.0000     0.6490 c3         1 0RW       0.099100
     11 H1          -0.5280     0.0060    -0.9460 ha         1 0RW       0.101000
     12 H2           1.9020    -0.0030    -0.9360 ha         1 0RW       0.096000
     13 H3          -0.7240     0.0000     3.3080 ha         1 0RW       0.111000
     14 H4          -1.8160     0.0040     1.1390 ha         1 0RW       0.098000
     15 H5           4.2940    -0.0000     3.4650 hn         1 0RW       0.138700
     16 H6           4.5250     0.8840     0.0240 hc         1 0RW       0.011367
     17 H7           5.4830     0.0020     1.2210 hc         1 0RW       0.011367
     18 H8           4.5260    -0.8850     0.0260 hc         1 0RW       0.011367
@<TRIPOS>BOND
     1     1     2 ar  
     2     1     6 ar  
     3     1    11 1   
     4     2     3 ar  
     5     2    12 1   
     6     3     4 ar  
     7     3     7 2   
     8     4     5 ar  
     9     4     9 2   
    10     5     6 ar  
    11     5    13 1   
    12     6    14 1   
    13     7     8 1   
    14     7    10 1   
    15     8     9 1   
    16     8    15 1   
    17    10    16 1   
    18    10    17 1   
    19    10    18 1   
@<TRIPOS>SUBSTRUCTURE
     1 0RW         1 TEMP              0 ****  ****    0 ROOT
