@<TRIPOS>MOLECULE
molecule
   48    51     1     0     0
SMALL
bcc


@<TRIPOS>ATOM
      1 O1           0.0000     0.0000     0.0000 o          1 0RX      -0.588100
      2 C1           1.2150     0.0000     0.0000 c          1 0RX       0.677700
      3 C13          1.9560     0.0000     1.2820 ca         1 0RX      -0.094600
      4 C21          1.2780    -0.0000     2.5010 ca         1 0RX      -0.209300
      5 C16          2.0160    -0.0010     3.6810 ca         1 0RX       0.616200
      6 N4           1.3550    -0.0020     4.9040 nh         1 0RX      -0.698300
      7 C20          2.3130    -0.0020     6.0200 c3         1 0RX       0.131800
      8 C19          1.5450     0.0580     7.3440 c3         1 0RX       0.135400
      9 O3           0.6350    -1.0430     7.4120 os         1 0RX      -0.422600
     10 C18         -0.3130    -1.0740     6.3400 c3         1 0RX       0.135400
     11 C17          0.4350    -1.1440     5.0060 c3         1 0RX       0.131800
     12 N3           3.3380    -0.0010     3.6510 nb         1 0RX      -0.726000
     13 C15          4.0110    -0.0010     2.5180 ca         1 0RX       0.448200
     14 C14          3.3570    -0.0060     1.3020 ca         1 0RX      -0.268300
     15 N1           1.8880    -0.0060    -1.1680 ns         1 0RX      -0.469100
     16 C2           1.1970    -0.1720    -2.3740 ca         1 0RX       0.052600
     17 C12         -0.1190     0.2550    -2.4840 ca         1 0RX      -0.140000
     18 C11         -0.8010     0.0920    -3.6750 ca         1 0RX      -0.123000
     19 C5          -0.1700    -0.5010    -4.7590 ca         1 0RX       0.079100
     20 C4           1.1450    -0.9290    -4.6490 ca         1 0RX      -0.123000
     21 C3           1.8290    -0.7600    -3.4610 ca         1 0RX      -0.140000
     22 O2          -0.8420    -0.6630    -5.9300 os         1 0RX      -0.239200
     23 C6          -1.8870    -1.5280    -5.9510 ca         1 0RX       0.167100
     24 C10         -2.2670    -2.2170    -4.8010 ca         1 0RX      -0.310800
     25 C9          -3.3360    -3.0880    -4.8630 ca         1 0RX       0.450200
     26 N2          -3.9950    -3.2700    -5.9920 nb         1 0RX      -0.717000
     27 C8          -3.6660    -2.6350    -7.1010 ca         1 0RX       0.450200
     28 C7          -2.6120    -1.7450    -7.1190 ca         1 0RX      -0.310800
     29 H1           0.2130     0.1970     2.5280 ha         1 0RX       0.172000
     30 H2           2.9610     0.8620     5.9400 h1         1 0RX       0.059450
     31 H3           2.9050    -0.9090     5.9870 h1         1 0RX       0.059450
     32 H4           0.9920     0.9870     7.3980 h1         1 0RX       0.057200
     33 H5           2.2450    -0.0020     8.1690 h1         1 0RX       0.057200
     34 H6          -0.9470    -1.9460     6.4440 h1         1 0RX       0.057200
     35 H7          -0.9170    -0.1750     6.3670 h1         1 0RX       0.057200
     36 H8          -0.2780    -1.1070     4.1910 h1         1 0RX       0.059450
     37 H9           1.0000    -2.0680     4.9580 h1         1 0RX       0.059450
     38 H10          5.0940    -0.0030     2.5400 h4         1 0RX       0.027100
     39 H11          3.9190    -0.0060     0.3770 ha         1 0RX       0.132000
     40 H12          2.8780     0.1400    -1.1750 hn         1 0RX       0.330500
     41 H13         -0.6120     0.7180    -1.6370 ha         1 0RX       0.160000
     42 H14         -1.8280     0.4250    -3.7610 ha         1 0RX       0.149500
     43 H15          1.6370    -1.3900    -5.4970 ha         1 0RX       0.149500
     44 H16          2.8560    -1.0940    -3.3750 ha         1 0RX       0.160000
     45 H17         -1.7300    -2.0720    -3.8710 ha         1 0RX       0.152500
     46 H18         -3.6380    -3.6280    -3.9740 h4         1 0RX       0.026100
     47 H19         -4.2340    -2.8110    -8.0070 h4         1 0RX       0.026100
     48 H20         -2.3470    -1.2270    -8.0330 ha         1 0RX       0.152500
@<TRIPOS>BOND
     1    27    26 ar
     2    27    28 ar
     3    26    25 ar
     4    28    23 ar
     5    25    24 ar
     6    23    24 ar
     7    23    22 1
     8    22    19 1
     9    19    18 ar
    10    19    20 ar
    11    18    17 ar
    12    20    21 ar
    13    17    16 ar
    14    21    16 ar
    15    16    15 1
    16    15     2 1
    17     1     2 2
    18     2     3 1
    19     3     4 ar
    20     3    14 ar
    21     4     5 ar
    22    14    13 ar
    23    11     6 1
    24    11    10 1
    25     5    12 ar
    26     5     6 1
    27    13    12 ar
    28     6     7 1
    29    10     9 1
    30     9     8 1
    31     7     8 1
    32     4    29 1
    33     7    30 1
    34     7    31 1
    35     8    32 1
    36     8    33 1
    37    10    34 1
    38    10    35 1
    39    11    36 1
    40    11    37 1
    41    13    38 1
    42    14    39 1
    43    15    40 1
    44    17    41 1
    45    18    42 1
    46    20    43 1
    47    21    44 1
    48    24    45 1
    49    25    46 1
    50    27    47 1
    51    28    48 1
@<TRIPOS>SUBSTRUCTURE
     1 0RX         1 TEMP              0 ****  ****    0 ROOT
