@<TRIPOS>MOLECULE
0RX
   48    51     1     0     0
SMALL
bcc


@<TRIPOS>ATOM
      1 O1          -0.2440     0.1700     0.2580 o          1 0RX      -0.570100
      2 C1           0.9890     0.3080     0.1820 c          1 0RX       0.678700
      3 C13          1.8540     0.2240     1.4010 ca         1 0RX      -0.085600
      4 C21          2.8530     1.1640     1.6490 ca         1 0RX      -0.254300
      5 C16          3.6250     1.0510     2.8470 ca         1 0RX       0.621200
      6 N4           4.5660     2.0820     3.1320 nh         1 0RX      -0.719300
      7 C20          5.2670     2.0540     4.4030 c3         1 0RX       0.149300
      8 C19          6.5730     1.2550     4.4070 c3         1 0RX       0.103900
      9 O3           7.3250     1.3870     3.2010 os         1 0RX      -0.414600
     10 C18          6.9320     2.4910     2.4010 c3         1 0RX       0.103900
     11 C17          5.4470     2.4250     2.0170 c3         1 0RX       0.149300
     12 N3           3.4120     0.0280     3.7350 nb         1 0RX      -0.699000
     13 C15          2.4350    -0.8480     3.4640 ca         1 0RX       0.425200
     14 C14          1.6230    -0.8050     2.3170 ca         1 0RX      -0.232300
     15 N1           1.6610     0.5320    -1.0130 ns         1 0RX      -0.468100
     16 C2           1.1010     0.6260    -2.2970 ca         1 0RX       0.067600
     17 C12          1.9750     0.6040    -3.4130 ca         1 0RX      -0.159000
     18 C11          1.4780     0.7080    -4.7050 ca         1 0RX      -0.109000
     19 C5           0.0990     0.8440    -4.9020 ca         1 0RX       0.055100
     20 C4          -0.7820     0.8670    -3.8170 ca         1 0RX      -0.109000
     21 C3          -0.2870     0.7590    -2.5220 ca         1 0RX      -0.159000
     22 O2          -0.3420     1.0880    -6.2040 os         1 0RX      -0.244200
     23 C6          -1.1980     0.1510    -6.7560 ca         1 0RX       0.153100
     24 C10         -1.5250    -1.0800    -6.1730 ca         1 0RX      -0.289800
     25 C9          -2.3920    -1.9280    -6.8850 ca         1 0RX       0.418700
     26 N2          -2.9210    -1.6250    -8.0850 nb         1 0RX      -0.685000
     27 C8          -2.5910    -0.4330    -8.6240 ca         1 0RX       0.418700
     28 C7          -1.7380     0.4960    -8.0100 ca         1 0RX      -0.289800
     29 H1           3.0220     2.0040     0.9600 ha         1 0RX       0.152000
     30 H2           5.5030     3.1340     4.6370 h1         1 0RX       0.064450
     31 H3           4.5990     1.6690     5.2200 h1         1 0RX       0.064450
     32 H4           7.2240     1.6030     5.2520 h1         1 0RX       0.057450
     33 H5           6.3780     0.1540     4.5060 h1         1 0RX       0.057450
     34 H6           7.5710     2.4080     1.4820 h1         1 0RX       0.057450
     35 H7           7.1580     3.4500     2.9370 h1         1 0RX       0.057450
     36 H8           5.3320     1.6920     1.1700 h1         1 0RX       0.064450
     37 H9           5.1230     3.4390     1.6460 h1         1 0RX       0.064450
     38 H10          2.2980    -1.6450     4.2190 h4         1 0RX       0.030100
     39 H11          0.8250    -1.5420     2.1540 ha         1 0RX       0.165000
     40 H12          2.6570     0.5570    -0.9740 hn         1 0RX       0.321500
     41 H13          3.0620     0.5030    -3.2700 ha         1 0RX       0.156500
     42 H14          2.1580     0.6970    -5.5700 ha         1 0RX       0.152500
     43 H15         -1.8640     0.9740    -3.9890 ha         1 0RX       0.152500
     44 H16         -0.9950     0.7790    -1.6760 ha         1 0RX       0.156500
     45 H17         -1.1210    -1.3760    -5.1970 ha         1 0RX       0.158500
     46 H18         -2.6780    -2.9090    -6.4670 h4         1 0RX       0.024100
     47 H19         -3.0400    -0.2120    -9.6090 h4         1 0RX       0.024100
     48 H20         -1.4930     1.4550    -8.4820 ha         1 0RX       0.158500
@<TRIPOS>BOND
     1     1     2 2   
     2     2     3 1   
     3     2    15 1   
     4     3     4 ar  
     5     3    14 ar  
     6     4     5 ar  
     7     4    29 1   
     8     5     6 1   
     9     5    12 ar  
    10     6     7 1   
    11     6    11 1   
    12     7     8 1   
    13     7    30 1   
    14     7    31 1   
    15     8     9 1   
    16     8    32 1   
    17     8    33 1   
    18     9    10 1   
    19    10    11 1   
    20    10    34 1   
    21    10    35 1   
    22    11    36 1   
    23    11    37 1   
    24    12    13 ar  
    25    13    14 ar  
    26    13    38 1   
    27    14    39 1   
    28    15    16 1   
    29    15    40 1   
    30    16    17 ar  
    31    16    21 ar  
    32    17    18 ar  
    33    17    41 1   
    34    18    19 ar  
    35    18    42 1   
    36    19    20 ar  
    37    19    22 1   
    38    20    21 ar  
    39    20    43 1   
    40    21    44 1   
    41    22    23 1   
    42    23    24 ar  
    43    23    28 ar  
    44    24    25 ar  
    45    24    45 1   
    46    25    26 ar  
    47    25    46 1   
    48    26    27 ar  
    49    27    28 ar  
    50    27    47 1   
    51    28    48 1   
@<TRIPOS>SUBSTRUCTURE
     1 0RX         1 TEMP              0 ****  ****    0 ROOT
