@<TRIPOS>MOLECULE
0RY
   27    27     1     0     0
SMALL
bcc


@<TRIPOS>ATOM
      1 OAB         -0.2740    -0.5610    -0.0350 o          1 0RY      -0.814800
      2 CAM          0.3190     0.4680    -0.4880 c          1 0RY       0.883800
      3 OAE         -0.0490     1.6490    -0.2710 o          1 0RY      -0.814800
      4 CAF          1.5430     0.2670    -1.3610 ce         1 0RY      -0.106200
      5 CAG          1.5470    -0.1500    -2.6330 cf         1 0RY      -0.293200
      6 CAO          0.3240    -0.4980    -3.3820 c          1 0RY       0.698300
      7 OAD          0.1220    -0.1410    -4.5640 o          1 0RY      -0.661100
      8 NAL         -0.6150    -1.3020    -2.7010 ns         1 0RY      -0.456100
      9 CAP         -1.9850    -1.1850    -2.9150 ca         1 0RY       0.104600
     10 CAK         -2.5140    -0.9220    -4.1910 ca         1 0RY      -0.174000
     11 CAI         -2.8920    -1.3270    -1.8210 ca         1 0RY      -0.069000
     12 CAH         -4.2590    -1.2180    -2.0250 ca         1 0RY      -0.123000
     13 CAJ         -4.7790    -0.9010    -3.2830 ca         1 0RY      -0.073000
     14 CAQ         -3.8950    -0.7160    -4.3530 ca         1 0RY      -0.197600
     15 CAN         -4.4230    -0.2380    -5.6160 c          1 0RY       0.591700
     16 OAC         -5.5400    -0.2900    -6.1120 o          1 0RY      -0.453100
     17 NAA         -3.4110     0.5400    -6.4640 nz         1 0RY      -0.768400
     18 H2           2.4880     0.5560    -0.8710 ha         1 0RY       0.134000
     19 H3           2.4640    -0.2090    -3.2380 ha         1 0RY       0.140000
     20 H4          -0.3610    -1.5320    -1.7410 hn         1 0RY       0.379500
     21 H5          -1.8210    -0.8920    -5.0460 ha         1 0RY       0.158000
     22 H6          -2.4800    -1.4800    -0.8000 ha         1 0RY       0.210000
     23 H7          -4.9480    -1.3480    -1.1740 ha         1 0RY       0.159000
     24 H8          -5.8630    -0.7720    -3.4260 ha         1 0RY       0.152000
     25 H9          -2.7650    -0.1160    -6.9110 hn         1 0RY       0.464800
     26 H10         -3.8910     1.0870    -7.1820 hn         1 0RY       0.464800
     27 HAA3        -2.8640     1.1580    -5.8530 hn         1 0RY       0.464800
@<TRIPOS>BOND
     1     1     2 1   
     2     2     3 1   
     3     2     4 1   
     4     4     5 2   
     5     4    18 1   
     6     5     6 1   
     7     5    19 1   
     8     6     7 2   
     9     6     8 1   
    10     8     9 1   
    11     8    20 1   
    12     9    10 ar  
    13     9    11 ar  
    14    10    14 ar  
    15    10    21 1   
    16    11    12 ar  
    17    11    22 1   
    18    12    13 ar  
    19    12    23 1   
    20    13    14 ar  
    21    13    24 1   
    22    14    15 1   
    23    15    16 2   
    24    15    17 1   
    25    17    25 1   
    26    17    26 1   
    27    17    27 1   
@<TRIPOS>SUBSTRUCTURE
     1 0RY         1 TEMP              0 ****  ****    0 ROOT
