@<TRIPOS>MOLECULE
molecule
   27    27     1     0     0
SMALL
bcc


@<TRIPOS>ATOM
      1 OAB          0.0000     0.0000     0.0000 o          1 0RY      -0.738300
      2 CAM          1.2150     0.0000     0.0000 c          1 0RY       0.929800
      3 OAE          1.8880     0.0000     1.1670 o          1 0RY      -0.738300
      4 CAF          1.9510    -0.0070    -1.2780 ce         1 0RY      -0.131200
      5 CAG          1.2880     0.1300    -2.4370 cf         1 0RY      -0.364200
      6 CAO         -0.0180     0.8180    -2.4620 c          1 0RY       0.679300
      7 OAD         -0.3600     1.5070    -1.5220 o          1 0RY      -0.590100
      8 NAL         -0.8310     0.6820    -3.5280 ns         1 0RY      -0.489100
      9 CAP         -2.1090     1.2480    -3.5100 ca         1 0RY       0.111600
     10 CAK         -2.3210     2.4620    -2.8730 ca         1 0RY      -0.026000
     11 CAI         -3.1660     0.5970    -4.1350 ca         1 0RY      -0.119000
     12 CAH         -4.4320     1.1530    -4.1190 ca         1 0RY      -0.092000
     13 CAJ         -4.6540     2.3580    -3.4830 ca         1 0RY      -0.172000
     14 CAQ         -3.5980     3.0220    -2.8580 ca         1 0RY      -0.197600
     15 CAN         -3.8330     4.3150    -2.1800 c          1 0RY       0.500700
     16 OAC         -2.9110     4.8920    -1.6360 o          1 0RY      -0.413100
     17 NAA         -5.0670     4.8540    -2.1670 nz         1 0RY      -0.677400
     18 H2           1.8920     0.9750    -0.8260 ha         1 0RY       0.102000
     19 H3           0.4480    -0.5470    -2.3370 ha         1 0RY       0.069000
     20 H4          -0.5090     0.1990    -4.3440 hn         1 0RY       0.339500
     21 H5          -1.4980     2.9730    -2.3890 ha         1 0RY       0.211000
     22 H6          -2.9980    -0.3480    -4.6360 ha         1 0RY       0.158000
     23 H7          -5.2530     0.6410    -4.6060 ha         1 0RY       0.146000
     24 H8          -5.6470     2.7900    -3.4730 ha         1 0RY       0.091000
     25 H9          -5.0470     5.7230    -1.6700 hn         1 0RY       0.470133
     26 H10         -5.7010     4.2260    -1.7140 hn         1 0RY       0.470133
     27 HAA3        -5.3710     5.0150    -3.1070 hn         1 0RY       0.470133
@<TRIPOS>BOND
     1    17    15 1
     2    16    15 2
     3    15    14 1
     4    14    10 ar
     5    14    13 ar
     6     7     6 2
     7    10     9 ar
     8    13    12 ar
     9     6     8 1
    10     6     5 1
    11     9     8 1
    12     9    11 ar
    13     5     4 2
    14    12    11 ar
    15     4     2 1
    16     1     2 1
    17     2     3 1
    18     4    18 1
    19     5    19 1
    20     8    20 1
    21    10    21 1
    22    11    22 1
    23    12    23 1
    24    13    24 1
    25    17    25 1
    26    17    26 1
    27    27    17 1
@<TRIPOS>SUBSTRUCTURE
     1 0RY         1 TEMP              0 ****  ****    0 ROOT
