@<TRIPOS>MOLECULE
0RY
   27    27     1     0     0
SMALL
bcc


@<TRIPOS>ATOM
      1 OAB          0.0000     0.0000     0.0000 o          1 0RY      -0.860800
      2 CAM          1.2150     0.0000     0.0000 c          1 0RY       0.939800
      3 OAE          1.8880     0.0000     1.1670 o          1 0RY      -0.860800
      4 CAF          1.9510    -0.0070    -1.2780 ce         1 0RY      -0.009200
      5 CAG          1.2880     0.1300    -2.4370 cf         1 0RY      -0.312200
      6 CAO         -0.0180     0.8180    -2.4620 c          1 0RY       0.577300
      7 OAD         -0.3600     1.5070    -1.5220 o          1 0RY      -0.545100
      8 NAL         -0.8310     0.6820    -3.5280 ns         1 0RY      -0.059100
      9 CAP         -2.1090     1.2480    -3.5100 ca         1 0RY      -0.027400
     10 CAK         -2.3210     2.4620    -2.8730 ca         1 0RY       0.002000
     11 CAI         -3.1660     0.5970    -4.1350 ca         1 0RY      -0.092000
     12 CAH         -4.4320     1.1530    -4.1190 ca         1 0RY      -0.053000
     13 CAJ         -4.6540     2.3580    -3.4830 ca         1 0RY      -0.157000
     14 CAQ         -3.5980     3.0220    -2.8580 ca         1 0RY      -0.212600
     15 CAN         -3.8330     4.3150    -2.1800 c          1 0RY       0.347700
     16 OAC         -2.9110     4.8920    -1.6360 o          1 0RY      -0.424100
     17 NAA         -5.0670     4.8540    -2.1670 nz         1 0RY       0.197600
     18 H2           2.9150    -0.5030    -1.2930 ha         1 0RY       0.083000
     19 H3           1.8540     0.1050    -3.3600 ha         1 0RY       0.083000
     20 H4          -0.5130     0.1910    -4.3400 hn         1 0RY       0.174500
     21 H5          -1.4980     2.9730    -2.3890 ha         1 0RY       0.180000
     22 H6          -2.9980    -0.3480    -4.6360 ha         1 0RY       0.123000
     23 H7          -5.2530     0.6410    -4.6060 ha         1 0RY       0.112000
     24 H8          -5.6470     2.7900    -3.4730 ha         1 0RY       0.070000
     25 H9          -5.7010     4.2260    -1.7140 hn         1 0RY       0.240467
     26 H10         -5.3710     5.0150    -3.1070 hn         1 0RY       0.240467
     27 HAA3        -5.0470     5.7230    -1.6700 hn         1 0RY       0.240467
@<TRIPOS>BOND
     1     1     2 1   
     2     2     3 1   
     3     2     4 1   
     4     4     5 2   
     5     4    18 1   
     6     5     6 1   
     7     5    19 1   
     8     6     7 2   
     9     6     8 1   
    10     8     9 1   
    11     8    20 1   
    12     9    10 ar  
    13     9    11 ar  
    14    10    14 ar  
    15    10    21 1   
    16    11    12 ar  
    17    11    22 1   
    18    12    13 ar  
    19    12    23 1   
    20    13    14 ar  
    21    13    24 1   
    22    14    15 1   
    23    15    16 2   
    24    15    17 1   
    25    17    25 1   
    26    17    26 1   
    27    17    27 1   
@<TRIPOS>SUBSTRUCTURE
     1 0RY         1 TEMP              0 ****  ****    0 ROOT
