@<TRIPOS>MOLECULE
0RZ
   27    27     1     0     0
SMALL
bcc


@<TRIPOS>ATOM
      1 OAB          0.6900     0.1130    -3.9860 o          1 0RZ      -0.850800
      2 CAM          1.4960    -0.5550    -3.2560 c          1 0RZ       0.893800
      3 OAE          1.8950    -1.6940    -3.6560 o          1 0RZ      -0.850800
      4 CAF          1.9420    -0.0110    -1.9400 ce         1 0RZ      -0.117200
      5 CAG          3.0060     0.7600    -1.7070 cf         1 0RZ      -0.244200
      6 CAO          3.9870     1.1840    -2.7390 c          1 0RZ       0.658300
      7 OAD          5.2090     1.0400    -2.5990 o          1 0RZ      -0.542100
      8 NAL          3.4590     1.8150    -3.9060 ns         1 0RZ      -0.442100
      9 CAP          3.7510     1.1880    -5.1390 ca         1 0RZ       0.046600
     10 CAK          2.6710     0.7030    -5.9060 ca         1 0RZ      -0.128000
     11 CAI          5.0640     0.9440    -5.5940 ca         1 0RZ      -0.082000
     12 CAH          5.2690     0.1690    -6.7360 ca         1 0RZ      -0.122000
     13 CAJ          4.2050    -0.4580    -7.3860 ca         1 0RZ      -0.087000
     14 CAQ          2.9040    -0.2230    -6.9250 ca         1 0RZ      -0.174600
     15 CAN          1.7870    -1.0760    -7.3500 c          1 0RZ       0.583700
     16 OAC          1.5070    -1.5020    -8.4660 o          1 0RZ      -0.472100
     17 NAA          0.9250    -1.5390    -6.2180 nz         1 0RZ      -0.793400
     18 H2           1.2940    -0.3280    -1.1040 ha         1 0RZ       0.146000
     19 H3           3.2700     1.0910    -0.6890 ha         1 0RZ       0.154000
     20 H4           2.4780     2.0230    -3.8140 hn         1 0RZ       0.308500
     21 H5           1.6410     1.0100    -5.6440 ha         1 0RZ       0.179000
     22 H6           5.9220     1.3320    -5.0180 ha         1 0RZ       0.177000
     23 H7           6.2950     0.0110    -7.1020 ha         1 0RZ       0.149000
     24 H8           4.3840    -1.1450    -8.2250 ha         1 0RZ       0.150000
     25 H9           0.2040    -2.1780    -6.5420 hn         1 0RZ       0.486800
     26 H10          1.5140    -1.9940    -5.4690 hn         1 0RZ       0.486800
     27 HAA3         0.4930    -0.7280    -5.7070 hn         1 0RZ       0.486800
@<TRIPOS>BOND
     1     1     2 1   
     2     2     3 1   
     3     2     4 1   
     4     4     5 2   
     5     4    18 1   
     6     5     6 1   
     7     5    19 1   
     8     6     7 2   
     9     6     8 1   
    10     8     9 1   
    11     8    20 1   
    12     9    10 ar  
    13     9    11 ar  
    14    10    14 ar  
    15    10    21 1   
    16    11    12 ar  
    17    11    22 1   
    18    12    13 ar  
    19    12    23 1   
    20    13    14 ar  
    21    13    24 1   
    22    14    15 1   
    23    15    16 2   
    24    15    17 1   
    25    17    25 1   
    26    17    26 1   
    27    17    27 1   
@<TRIPOS>SUBSTRUCTURE
     1 0RZ         1 TEMP              0 ****  ****    0 ROOT
