@<TRIPOS>MOLECULE
0RZ
   27    29     1     0     0
SMALL
bcc


@<TRIPOS>ATOM
      1 OAB          0.0000     0.0000     0.0000 o          1 0RZ      -0.550500
      2 CAM          1.2140     0.0000     0.0000 c3         1 0RZ       0.487000
      3 OAE          1.8890     0.0000     1.1660 o          1 0RZ      -0.550500
      4 CAF          1.9520    -0.0060    -1.2780 c2         1 0RZ      -0.084000
      5 CAG          1.2800    -0.0110    -2.4410 c2         1 0RZ      -0.150000
      6 CAO          2.0170    -0.0170    -3.7190 c3         1 0RZ       0.303000
      7 OAD          3.2330    -0.0170    -3.7200 o          1 0RZ      -0.485000
      8 NAL          1.3430    -0.0220    -4.8860 nu         1 0RZ       0.079000
      9 CAP          2.0380     0.0830    -6.0950 ca         1 0RZ      -0.022000
     10 CAK          3.1950     0.8430    -6.1660 ca         1 0RZ      -0.005000
     11 CAI          1.5700    -0.5770    -7.2260 ca         1 0RZ      -0.091000
     12 CAH          2.2520    -0.4750    -8.4220 ca         1 0RZ      -0.051000
     13 CAJ          3.4030     0.2820    -8.5040 ca         1 0RZ      -0.157000
     14 CAQ          3.8830     0.9450    -7.3740 ca         1 0RZ      -0.191000
     15 CAN          5.1190     1.7530    -7.4580 c2         1 0RZ       0.090000
     16 OAC          5.5360     2.3300    -6.4730 o          1 0RZ      -0.187000
     17 NAA          5.7830     1.8510    -8.6270 nz         1 0RZ       0.811000
     18 H2           1.4890     0.8720    -0.8430 DU         1 0RZ       0.084000
     19 H3           1.7440     0.8620    -2.8830 DU         1 0RZ      -0.036000
     20 H4           0.3450    -0.1000    -4.8870 hn         1 0RZ       0.107000
     21 H5           3.5630     1.3560    -5.2860 ha         1 0RZ       0.175000
     22 H6           0.6670    -1.1730    -7.1680 ha         1 0RZ       0.126000
     23 H7           1.8810    -0.9910    -9.3000 ha         1 0RZ       0.114000
     24 H8           3.9350     0.3590    -9.4440 ha         1 0RZ       0.071000
     25 H9           5.1830     2.2540    -9.3180 hn         1 0RZ       0.036667
     26 H10          6.5900     2.4310    -8.5050 hn         1 0RZ       0.036667
     27 HAA3         6.0700     0.9390    -8.9240 hn         1 0RZ       0.036667
@<TRIPOS>BOND
     1     1     2 1   
     2     2     3 1   
     3     2     4 1   
     4     2    18 1   
     5     4     5 1   
     6     4    18 1   
     7     5     6 1   
     8     5    19 1   
     9     6     7 1   
    10     6     8 1   
    11     6    19 1   
    12     8     9 1   
    13     8    20 1   
    14     9    10 1   
    15     9    11 1   
    16    10    14 1   
    17    10    21 1   
    18    11    12 1   
    19    11    22 1   
    20    12    13 1   
    21    12    23 1   
    22    13    14 1   
    23    13    24 1   
    24    14    15 1   
    25    15    16 1   
    26    15    17 1   
    27    17    25 1   
    28    17    26 1   
    29    17    27 1   
@<TRIPOS>SUBSTRUCTURE
     1 0RZ         1 TEMP              0 ****  ****    0 ROOT
