@<TRIPOS>MOLECULE
molecule
   27    27     1     0     0
SMALL
bcc


@<TRIPOS>ATOM
      1 OAB          0.0000     0.0000     0.0000 o          1 0RZ      -0.808800
      2 CAM          1.2140     0.0000     0.0000 c          1 0RZ       0.852800
      3 OAE          1.8890     0.0000     1.1660 o          1 0RZ      -0.808800
      4 CAF          1.9520    -0.0060    -1.2780 ce         1 0RZ      -0.034200
      5 CAG          1.2800    -0.0110    -2.4410 cf         1 0RZ      -0.327200
      6 CAO          2.0170    -0.0170    -3.7190 c          1 0RZ       0.669300
      7 OAD          3.2330    -0.0170    -3.7200 o          1 0RZ      -0.631100
      8 NAL          1.3430    -0.0220    -4.8860 ns         1 0RZ      -0.480100
      9 CAP          2.0380     0.0830    -6.0950 ca         1 0RZ       0.101600
     10 CAK          3.1950     0.8430    -6.1660 ca         1 0RZ      -0.034000
     11 CAI          1.5700    -0.5770    -7.2260 ca         1 0RZ      -0.115000
     12 CAH          2.2520    -0.4750    -8.4220 ca         1 0RZ      -0.091000
     13 CAJ          3.4030     0.2820    -8.5040 ca         1 0RZ      -0.168000
     14 CAQ          3.8830     0.9450    -7.3740 ca         1 0RZ      -0.195600
     15 CAN          5.1190     1.7530    -7.4580 c          1 0RZ       0.501700
     16 OAC          5.5360     2.3300    -6.4730 o          1 0RZ      -0.412100
     17 NAA          5.7830     1.8510    -8.6270 nz         1 0RZ      -0.678400
     18 H2           3.0360    -0.0050    -1.2780 ha         1 0RZ       0.130000
     19 H3           0.1960    -0.0120    -2.4400 ha         1 0RZ       0.156000
     20 H4           0.3440    -0.0850    -4.8860 hn         1 0RZ       0.344500
     21 H5           3.5630     1.3560    -5.2860 ha         1 0RZ       0.206000
     22 H6           0.6670    -1.1730    -7.1680 ha         1 0RZ       0.161000
     23 H7           1.8810    -0.9910    -9.3000 ha         1 0RZ       0.150000
     24 H8           3.9350     0.3590    -9.4440 ha         1 0RZ       0.095000
     25 H9           6.0700     0.9390    -8.9240 hn         1 0RZ       0.471800
     26 H10          6.5900     2.4310    -8.5050 hn         1 0RZ       0.471800
     27 HAA3         5.1830     2.2540    -9.3180 hn         1 0RZ       0.471800
@<TRIPOS>BOND
     1     1     2 1   
     2     3     2 1   
     3     2     4 1   
     4     4     5 2   
     5     5     6 1   
     6     6     8 1   
     7     6     7 2   
     8     8     9 1   
     9     9    10 ar  
    10     9    11 ar  
    11    10    14 ar  
    12    17    15 1   
    13    11    12 ar  
    14    14    15 1   
    15    14    13 ar  
    16    15    16 2   
    17    12    13 ar  
    18     4    18 1   
    19     5    19 1   
    20     8    20 1   
    21    10    21 1   
    22    11    22 1   
    23    12    23 1   
    24    13    24 1   
    25    17    25 1   
    26    17    26 1   
    27    27    17 1   
@<TRIPOS>SUBSTRUCTURE
     1 0RZ         1 TEMP              0 ****  ****    0 ROOT
