@<TRIPOS>MOLECULE
molecule
   31    32     1     0     0
SMALL
bcc


@<TRIPOS>ATOM
      1 O01          0.0000     0.0000     0.0000 o          1 0S0      -0.591500
      2 C02          1.2200     0.0000     0.0000 c          1 0S0       0.716700
      3 N03          1.8930     0.0000     1.1650 ns         1 0S0      -0.415100
      4 C04          3.2520     0.0000     1.1880 cc         1 0S0       0.311700
      5 O05          3.8980    -0.0010     2.3750 oh         1 0S0      -0.499100
      6 C06          3.9810     0.0000     0.0170 cc         1 0S0      -0.292000
      7 C07          3.3260     0.0000    -1.2070 cc         1 0S0       0.054000
      8 C08          1.9280    -0.0060    -1.2290 cd         1 0S0      -0.094600
      9 N09          1.2590    -0.0060    -2.4090 nf         1 0S0      -0.096600
     10 N10          1.9120     0.0000    -3.5210 ne         1 0S0      -0.333400
     11 C11          1.2370    -0.0010    -4.7110 ca         1 0S0       0.254400
     12 C12         -0.1600    -0.0010    -4.7250 ca         1 0S0      -0.138000
     13 C13         -0.8340    -0.0000    -5.9290 ca         1 0S0      -0.025500
     14 C14         -0.1300    -0.0000    -7.1210 ca         1 0S0      -0.360500
     15 S15         -0.9990     0.0010    -8.6530 sy         1 0S0       1.221200
     16 O16         -2.2840    -0.5420    -8.3850 o          1 0S0      -0.525800
     17 N17         -1.2410     1.5830    -9.0780 nz         1 0S0      -0.805500
     18 O18         -0.1100    -0.5430    -9.6190 o          1 0S0      -0.525800
     19 C19          1.2540    -0.0000    -7.1140 ca         1 0S0      -0.025500
     20 C20          1.9420     0.0060    -5.9170 ca         1 0S0      -0.138000
     21 H1           1.3850    -0.0000     2.0280 hn         1 0S0       0.360500
     22 H2           5.0640     0.0030     0.0520 ha         1 0S0       0.178000
     23 H3           3.8900    -0.0020    -2.1320 ha         1 0S0       0.176000
     24 H5          -0.7130    -0.0010    -3.7930 ha         1 0S0       0.179500
     25 H6          -1.9170    -0.0000    -5.9420 ha         1 0S0       0.153000
     26 H7          -1.7340     1.6230    -9.9480 hn         1 0S0       0.489800
     27 H8          -1.7780     2.0410    -8.3690 hn         1 0S0       0.489800
     28 H9           1.7990     0.0030    -8.0500 ha         1 0S0       0.153000
     29 H10          3.0250     0.0060    -5.9140 ha         1 0S0       0.179500
     30 H11          4.0770     0.8880     2.6360 ho         1 0S0       0.461000
     31 H173        -0.3560     2.0410    -9.1750 hn         1 0S0       0.489800
@<TRIPOS>BOND
     1     6     7 1
     2     6     4 2
     3     5     4 1
     4     7     8 2
     5     4     3 1
     6    18    15 2
     7    16    15 2
     8    13    12 ar
     9    13    14 ar
    10    12    11 ar
    11     8     9 1
    12     8     2 1
    13     3     2 1
    14     9    10 2
    15    15    14 1
    16    15    17 1
    17     2     1 2
    18    14    19 ar
    19    11    10 1
    20    11    20 ar
    21    19    20 ar
    22     3    21 1
    23     6    22 1
    24     7    23 1
    25    12    24 1
    26    13    25 1
    27    17    26 1
    28    17    27 1
    29    19    28 1
    30    20    29 1
    31     5    30 1
    32    31    17 1
@<TRIPOS>SUBSTRUCTURE
     1 0S0         1 TEMP              0 ****  ****    0 ROOT
