@<TRIPOS>MOLECULE
0S0
   31    32     1     0     0
SMALL
bcc


@<TRIPOS>ATOM
      1 O01          0.2420    -1.2080    -0.8360 o          1 0S0      -0.584500
      2 C02          1.2960    -0.6630    -0.4780 c          1 0S0       0.707700
      3 N03          1.8170    -1.0790     0.7830 ns         1 0S0      -0.429100
      4 C04          2.9860    -0.5720     1.2650 cc         1 0S0       0.331700
      5 O05          3.3400    -1.0720     2.4850 oh         1 0S0      -0.478100
      6 C06          3.7430     0.3760     0.5580 cd         1 0S0      -0.359000
      7 C07          3.2760     0.8240    -0.6780 cd         1 0S0       0.106000
      8 C08          2.0750     0.3450    -1.2150 cc         1 0S0      -0.136600
      9 N09          1.6920     0.8570    -2.4670 ne         1 0S0      -0.101600
     10 N10          0.5750     0.6560    -2.9440 nf         1 0S0      -0.247400
     11 C11          0.2060     1.0980    -4.2330 ca         1 0S0       0.307400
     12 C12          0.7610     0.5270    -5.4100 ca         1 0S0      -0.169000
     13 C13          0.2070     0.7960    -6.6420 ca         1 0S0       0.027500
     14 C14         -0.9190     1.6470    -6.7890 ca         1 0S0      -0.618500
     15 S15         -1.5200     1.9820    -8.2060 sy         1 0S0       1.510200
     16 O16         -0.7580     1.6090    -9.2940 o          1 0S0      -0.577300
     17 N17         -2.8460     0.5530    -8.2630 nz         1 0S0      -0.781500
     18 O18         -2.3720     3.0640    -8.2680 o          1 0S0      -0.577300
     19 C19         -1.4330     2.2430    -5.6070 ca         1 0S0       0.027500
     20 C20         -0.8970     1.9870    -4.3660 ca         1 0S0      -0.169000
     21 H1           1.3030    -1.7550     1.3150 hn         1 0S0       0.363500
     22 H2           4.6830     0.7530     0.9800 ha         1 0S0       0.173000
     23 H3           3.8750     1.5760    -1.2260 ha         1 0S0       0.168000
     24 H5           1.6410    -0.1340    -5.3360 ha         1 0S0       0.180000
     25 H6           0.6620     0.3560    -7.5500 ha         1 0S0       0.164500
     26 H7          -3.7790     0.9440    -8.3610 hn         1 0S0       0.449467
     27 H8          -2.8280    -0.0150    -7.4230 hn         1 0S0       0.449467
     28 H9          -2.2800     2.9510    -5.6960 ha         1 0S0       0.164500
     29 H10         -1.3240     2.4690    -3.4700 ha         1 0S0       0.180000
     30 H11          4.1790    -0.6580     2.7570 ho         1 0S0       0.470000
     31 H173        -2.6750    -0.0540    -9.0600 hn         1 0S0       0.449467
@<TRIPOS>BOND
     1     1     2 2   
     2     2     3 1   
     3     2     8 1   
     4     3     4 1   
     5     3    21 1   
     6     4     5 1   
     7     4     6 2   
     8     5    30 1   
     9     6     7 1   
    10     6    22 1   
    11     7     8 2   
    12     7    23 1   
    13     8     9 1   
    14     9    10 2   
    15    10    11 1   
    16    11    12 ar  
    17    11    20 ar  
    18    12    13 ar  
    19    12    24 1   
    20    13    14 ar  
    21    13    25 1   
    22    14    15 1   
    23    14    19 ar  
    24    15    16 2   
    25    15    17 1   
    26    15    18 2   
    27    17    26 1   
    28    17    27 1   
    29    17    31 1   
    30    19    20 ar  
    31    19    28 1   
    32    20    29 1   
@<TRIPOS>SUBSTRUCTURE
     1 0S0         1 TEMP              0 ****  ****    0 ROOT
