@<TRIPOS>MOLECULE
0S0
   31    32     1     0     0
SMALL
bcc


@<TRIPOS>ATOM
      1 O01          0.0000     0.0000     0.0000 o          1 0S0      -0.641500
      2 C02          1.2200     0.0000     0.0000 c          1 0S0       0.607700
      3 N03          1.8930     0.0000     1.1650 ns         1 0S0       0.077900
      4 C04          3.2520     0.0000     1.1880 cc         1 0S0       0.160700
      5 O05          3.8980    -0.0010     2.3750 oh         1 0S0      -0.479100
      6 C06          3.9810     0.0000     0.0170 cd         1 0S0      -0.280000
      7 C07          3.3260     0.0000    -1.2070 cd         1 0S0       0.096000
      8 C08          1.9280    -0.0060    -1.2290 cc         1 0S0      -0.161600
      9 N09          1.2590    -0.0060    -2.4090 ne         1 0S0       0.005400
     10 N10          1.9120     0.0000    -3.5210 nf         1 0S0      -0.330400
     11 C11          1.2370    -0.0010    -4.7110 ca         1 0S0       0.235400
     12 C12         -0.1600    -0.0010    -4.7250 ca         1 0S0      -0.125500
     13 C13         -0.8340    -0.0000    -5.9290 ca         1 0S0       0.018000
     14 C14         -0.1300    -0.0000    -7.1210 ca         1 0S0      -0.252500
     15 S15         -0.9990     0.0010    -8.6530 sy         1 0S0       0.930200
     16 O16         -2.2840    -0.5420    -8.3850 o          1 0S0      -0.500800
     17 N17         -1.2410     1.5830    -9.0780 nz         1 0S0      -0.134500
     18 O18         -0.1100    -0.5430    -9.6190 o          1 0S0      -0.500800
     19 C19          1.2540    -0.0000    -7.1140 ca         1 0S0       0.018000
     20 C20          1.9420     0.0060    -5.9170 ca         1 0S0      -0.125500
     21 H1           1.3850    -0.0000     2.0280 hn         1 0S0       0.191500
     22 H2           5.0640     0.0030     0.0520 ha         1 0S0       0.150000
     23 H3           3.8900    -0.0020    -2.1320 ha         1 0S0       0.133000
     24 H5          -0.7130    -0.0010    -3.7930 ha         1 0S0       0.146000
     25 H6          -1.9170    -0.0000    -5.9420 ha         1 0S0       0.122000
     26 H7          -0.3560     2.0410    -9.1760 hn         1 0S0       0.311800
     27 H8          -1.7350     1.6230    -9.9480 hn         1 0S0       0.311800
     28 H9           1.7990     0.0030    -8.0500 ha         1 0S0       0.122000
     29 H10          3.0250     0.0060    -5.9140 ha         1 0S0       0.146000
     30 H11          4.0770     0.8880     2.6360 ho         1 0S0       0.435000
     31 H173        -1.7770     2.0410    -8.3680 hn         1 0S0       0.311800
@<TRIPOS>BOND
     1     1     2 2   
     2     2     3 1   
     3     2     8 1   
     4     3     4 1   
     5     3    21 1   
     6     4     5 1   
     7     4     6 2   
     8     5    30 1   
     9     6     7 1   
    10     6    22 1   
    11     7     8 2   
    12     7    23 1   
    13     8     9 1   
    14     9    10 2   
    15    10    11 1   
    16    11    12 ar  
    17    11    20 ar  
    18    12    13 ar  
    19    12    24 1   
    20    13    14 ar  
    21    13    25 1   
    22    14    15 1   
    23    14    19 ar  
    24    15    16 2   
    25    15    17 1   
    26    15    18 2   
    27    17    26 1   
    28    17    27 1   
    29    17    31 1   
    30    19    20 ar  
    31    19    28 1   
    32    20    29 1   
@<TRIPOS>SUBSTRUCTURE
     1 0S0         1 TEMP              0 ****  ****    0 ROOT
