@<TRIPOS>MOLECULE
molecule
   38    39     1     0     0
SMALL
bcc


@<TRIPOS>ATOM
      1 C1           0.0000     0.0000     0.0000 cy         1 0S1       0.111100
      2 O1          -0.5730     0.8410    -1.0040 oh         1 0S1      -0.578800
      3 C2           1.4590     0.0000     1.5350 cy         1 0S1      -0.105700
      4 C3           1.5380     0.0000     0.0000 cy         1 0S1      -0.116400
      5 C4           0.0790     0.6600     1.3860 cy         1 0S1       0.233500
      6 H           -0.4180    -0.9990     0.0360 h1         1 0S1       0.057700
      7 HO          -0.9980     0.3090    -1.6550 ho         1 0S1       0.402000
      8 C5           1.4050    -1.4010     2.1480 c3         1 0S1      -0.031200
      9 HG           2.1900     0.6570     1.9910 hc         1 0S1       0.072700
     10 HGA          1.9610    -0.9120    -0.4030 hc         1 0S1       0.062700
     11 N1           0.1280     2.1240     1.3370 n7         1 0S1      -0.877100
     12 HB1         -0.6520     0.2630     2.0800 h1         1 0S1       0.070700
     13 S1          -1.1220     3.0170     1.9550 sy         1 0S1       1.427200
     14 C6          -1.1670     2.7200     3.6910 ca         1 0S1      -0.323500
     15 O2          -0.7600     4.3810     1.7890 o          1 0S1      -0.632300
     16 O3          -2.3150     2.4590     1.4210 o          1 0S1      -0.632300
     17 C7          -0.4390     3.5250     4.5480 ca         1 0S1      -0.025500
     18 C8          -0.4750     3.2930     5.9100 ca         1 0S1      -0.153500
     19 C9          -1.2370     2.2560     6.4160 ca         1 0S1      -0.028300
     20 C10         -1.9650     1.4520     5.5580 ca         1 0S1      -0.153500
     21 C11         -1.9330     1.6870     4.1960 ca         1 0S1      -0.025500
     22 C12         -1.2750     2.0030     7.9010 c3         1 0S1      -0.056800
     23 HB2          0.9260     2.5840     0.9450 hn         1 0S1       0.459800
     24 H7           0.1580     4.3380     4.1520 ha         1 0S1       0.149500
     25 H8           0.0950     3.9230     6.5820 ha         1 0S1       0.136500
     26 H9          -2.5640     0.6410     5.9540 ha         1 0S1       0.136500
     27 H10         -2.5030     1.0570     3.5240 ha         1 0S1       0.149500
     28 H11         -0.2680     2.0390     8.2990 hc         1 0S1       0.049367
     29 H12         -1.8810     2.7620     8.3810 hc         1 0S1       0.049367
     30 H13         -1.7030     1.0260     8.0900 hc         1 0S1       0.049367
     31 C13          2.8060    -1.9380     2.2960 c2         1 0S1      -0.173200
     32 C14          3.2280    -2.3520     3.4660 c2         1 0S1      -0.218000
     33 H14          1.9620     0.9120    -0.4030 hc         1 0S1       0.062700
     34 H15          0.9320    -1.3520     3.1210 hc         1 0S1       0.050200
     35 H16          0.8340    -2.0560     1.5010 hc         1 0S1       0.050200
     36 H17          3.4640    -1.9810     1.4360 ha         1 0S1       0.126000
     37 H18          4.2350    -2.7370     3.5740 ha         1 0S1       0.113500
     38 H19          2.5700    -2.3080     4.3250 ha         1 0S1       0.113500
@<TRIPOS>BOND
     1     1     2 1
     2     1     4 1
     3     1     5 1
     4     1     6 1
     5     2     7 1
     6     3     4 1
     7     3     5 1
     8     3     8 1
     9     3     9 1
    10     4    10 1
    11     5    11 1
    12     5    12 1
    13    11    13 1
    14    11    23 1
    15    13    14 1
    16    13    15 2
    17    13    16 2
    18    17    14 ar
    19    17    18 ar
    20    17    24 1
    21    18    19 ar
    22    18    25 1
    23    19    20 ar
    24    19    22 1
    25    20    21 ar
    26    20    26 1
    27    21    14 ar
    28    21    27 1
    29    22    28 1
    30    22    29 1
    31    22    30 1
    32     8    31 1
    33    31    32 2
    34     4    33 1
    35     8    34 1
    36     8    35 1
    37    31    36 1
    38    32    37 1
    39    32    38 1
@<TRIPOS>SUBSTRUCTURE
     1 0S1         1 TEMP              0 ****  ****    0 ROOT
