@<TRIPOS>MOLECULE
0S1
   38    39     1     0     0
SMALL
bcc


@<TRIPOS>ATOM
      1 C1           0.0000     0.0000     0.0000 cy         1 0S1       0.150100
      2 O1          -0.5730     0.8410    -1.0040 oh         1 0S1      -0.556800
      3 C2           1.4590     0.0000     1.5350 cy         1 0S1      -0.084700
      4 C3           1.5380     0.0000     0.0000 cy         1 0S1      -0.070400
      5 C4           0.0790     0.6600     1.3860 cy         1 0S1       0.178500
      6 H           -0.4180    -0.9990     0.0360 h1         1 0S1       0.024700
      7 HO          -0.9820     0.3080    -1.6650 ho         1 0S1       0.388000
      8 C5           1.4050    -1.4010     2.1480 c3         1 0S1       0.036800
      9 HG           2.1900     0.6570     1.9910 hc         1 0S1       0.043700
     10 HGA          1.9610    -0.9120    -0.4030 hc         1 0S1       0.034200
     11 N1           0.1280     2.1240     1.3370 n7         1 0S1      -0.530100
     12 HB1         -0.6520     0.2630     2.0800 h1         1 0S1       0.041700
     13 S1          -1.1220     3.0170     1.9550 sy         1 0S1       1.040200
     14 C6          -1.1670     2.7200     3.6910 ca         1 0S1      -0.170500
     15 O2          -0.7600     4.3810     1.7890 o          1 0S1      -0.584300
     16 O3          -2.3150     2.4590     1.4210 o          1 0S1      -0.584300
     17 C7          -0.4390     3.5250     4.5480 ca         1 0S1       0.008500
     18 C8          -0.4750     3.2930     5.9100 ca         1 0S1      -0.136500
     19 C9          -1.2370     2.2560     6.4160 ca         1 0S1      -0.036300
     20 C10         -1.9650     1.4520     5.5580 ca         1 0S1      -0.136500
     21 C11         -1.9330     1.6870     4.1960 ca         1 0S1       0.008500
     22 C12         -1.2750     2.0030     7.9010 c3         1 0S1       0.056200
     23 HB2          0.9230     2.5840     0.9400 hn         1 0S1       0.349800
     24 H7           0.1580     4.3380     4.1520 ha         1 0S1       0.122000
     25 H8           0.0950     3.9230     6.5820 ha         1 0S1       0.111000
     26 H9          -2.5640     0.6410     5.9540 ha         1 0S1       0.111000
     27 H10         -2.5030     1.0570     3.5240 ha         1 0S1       0.122000
     28 H11         -1.7030     1.0260     8.0900 hc         1 0S1       0.011367
     29 H12         -0.2680     2.0390     8.2990 hc         1 0S1       0.011367
     30 H13         -1.8810     2.7610     8.3810 hc         1 0S1       0.011367
     31 C13          2.8060    -1.9380     2.2960 c2         1 0S1      -0.156200
     32 C14          3.2280    -2.3520     3.4660 c2         1 0S1      -0.163000
     33 H14          1.9620     0.9120    -0.4030 hc         1 0S1       0.034200
     34 H15          0.9320    -1.3520     3.1210 hc         1 0S1       0.020200
     35 H16          0.8340    -2.0560     1.5010 hc         1 0S1       0.020200
     36 H17          3.4640    -1.9810     1.4360 ha         1 0S1       0.104000
     37 H18          2.5700    -2.3080     4.3250 ha         1 0S1       0.084500
     38 H19          4.2350    -2.7370     3.5740 ha         1 0S1       0.084500
@<TRIPOS>BOND
     1     1     2 1   
     2     1     4 1   
     3     1     5 1   
     4     1     6 1   
     5     2     7 1   
     6     3     4 1   
     7     3     5 1   
     8     3     8 1   
     9     3     9 1   
    10     4    10 1   
    11     4    33 1   
    12     5    11 1   
    13     5    12 1   
    14     8    31 1   
    15     8    34 1   
    16     8    35 1   
    17    11    13 1   
    18    11    23 1   
    19    13    14 1   
    20    13    15 2   
    21    13    16 2   
    22    14    17 ar  
    23    14    21 ar  
    24    17    18 ar  
    25    17    24 1   
    26    18    19 ar  
    27    18    25 1   
    28    19    20 ar  
    29    19    22 1   
    30    20    21 ar  
    31    20    26 1   
    32    21    27 1   
    33    22    28 1   
    34    22    29 1   
    35    22    30 1   
    36    31    32 2   
    37    31    36 1   
    38    32    37 1   
    39    32    38 1   
@<TRIPOS>SUBSTRUCTURE
     1 0S1         1 TEMP              0 ****  ****    0 ROOT
