@<TRIPOS>MOLECULE
0S2
   57    58     1     0     0
SMALL
bcc


@<TRIPOS>ATOM
      1 C12          0.0000     0.0000     0.0000 c3         1 0S2      -0.087600
      2 C11          1.5300     0.0000     0.0000 c3         1 0S2      -0.086300
      3 C14          1.8160    -2.4150    -0.1530 c          1 0S2       0.602100
      4 C13          2.0400     0.0000     1.4410 c3         1 0S2      -0.087600
      5 C15          2.3900    -3.6380    -0.8190 c3         1 0S2      -0.124700
      6 C17          1.6310    -4.8800    -0.3480 c3         1 0S2      -0.060400
      7 C18          2.2150    -6.1230    -1.0250 c3         1 0S2      -0.061900
      8 C19          3.6930    -6.2570    -0.6540 c3         1 0S2      -0.002700
      9 C20          4.4520    -5.0150    -1.1250 c3         1 0S2      -0.061900
     10 C21          3.8680    -3.7740    -0.4480 c3         1 0S2      -0.060400
     11 C02          2.0480    -1.0570    -3.1190 cc         1 0S2      -0.105000
     12 C03          2.8690    -0.9240    -4.2010 cd         1 0S2       0.075900
     13 S04          4.5420    -0.8140    -3.6730 ss         1 0S2      -0.196800
     14 C05          4.0620    -0.9530    -1.9890 cd         1 0S2       0.076300
     15 C06          2.6940    -1.0730    -1.9060 cc         1 0S2      -0.179400
     16 N07          2.0180    -1.1960    -0.6910 n          1 0S2       0.091000
     17 O09          4.5110    -1.0470     0.2460 o          1 0S2      -0.853300
     18 O10          6.2760    -0.8200    -1.0880 o          1 0S2      -0.853300
     19 O16          1.1690    -2.5280     0.8670 o          1 0S2      -0.686100
     20 C22          4.2770    -7.4990    -1.3310 c3         1 0S2      -0.017100
     21 C23          2.0850    -0.8650    -6.6860 c1         1 0S2      -0.142100
     22 C24          1.7040    -0.2560    -7.8140 c3         1 0S2       0.032100
     23 C25          0.8450    -1.5820    -8.6830 c3         1 0S2      -0.018767
     24 C26          0.5140     0.5290    -7.7590 c3         1 0S2      -0.018767
     25 C27          2.5080     0.0780    -8.8910 c3         1 0S2      -0.018767
     26 H1          -0.1590    -0.1040    -1.0670 hc         1 0S2       0.037200
     27 H2          -0.4690     0.6010     0.7690 hc         1 0S2       0.037200
     28 H3          -0.2730    -1.0480     0.0420 hc         1 0S2       0.037200
     29 H4           2.0450     0.9480     0.0930 h1         1 0S2       0.100700
     30 H5           2.7830    -0.7810     1.5490 hc         1 0S2       0.037200
     31 H6           1.1570    -0.5300     1.7790 hc         1 0S2       0.037200
     32 H7           2.3570     1.0180     1.6320 hc         1 0S2       0.037200
     33 H8           2.2970    -3.5470    -1.8950 hc         1 0S2       0.031700
     34 H9           0.5490    -4.8670    -0.4000 hc         1 0S2       0.040450
     35 H10          1.4470    -5.0190     0.7110 hc         1 0S2       0.040450
     36 H11          1.8680    -5.8120    -2.0030 hc         1 0S2       0.029450
     37 H12          1.8850    -6.8900    -0.3350 hc         1 0S2       0.029450
     38 H13          3.7870    -6.3490     0.4210 hc         1 0S2       0.032700
     39 H14          4.8020    -4.7240    -2.1080 hc         1 0S2       0.029450
     40 H15          5.4800    -4.9620    -0.7860 hc         1 0S2       0.029450
     41 H16          3.6490    -3.8900     0.6060 hc         1 0S2       0.040450
     42 H17          4.3360    -2.9110    -0.9080 hc         1 0S2       0.040450
     43 H18          0.9880    -1.2450    -2.9950 ha         1 0S2       0.121000
     44 H20          5.2810    -7.3960    -0.9370 hc         1 0S2       0.003700
     45 H21          4.0230    -7.7550    -2.3530 hc         1 0S2       0.003700
     46 H22          4.0570    -8.2730    -0.6060 hc         1 0S2       0.003700
     47 H23          0.5810    -2.0650    -7.7500 hc         1 0S2       0.009922
     48 H24          0.2350    -1.0710    -9.4190 hc         1 0S2       0.009922
     49 H25          1.6890    -2.1410    -9.0680 hc         1 0S2       0.009922
     50 H26         -0.4330     0.0340    -7.5800 hc         1 0S2       0.009922
     51 H27          0.8160     1.1990    -6.9640 hc         1 0S2       0.009922
     52 H28          0.3470     1.0550    -8.6910 hc         1 0S2       0.009922
     53 H29          2.2820     0.4470    -9.8840 hc         1 0S2       0.009922
     54 H30          2.9110     1.0590    -8.6700 hc         1 0S2       0.009922
     55 H31          3.4900    -0.3760    -8.9350 hc         1 0S2       0.009922
     56 C01          2.4320    -0.8830    -5.5640 ch         1 0S2      -0.021000
     57 C08          4.9470    -0.9440    -0.8860 c          1 0S2       0.972200
@<TRIPOS>BOND
     1     1     2 1   
     2     1    26 1   
     3     1    27 1   
     4     1    28 1   
     5     2     4 1   
     6     2    16 1   
     7     2    29 1   
     8     3     5 1   
     9     3    16 1   
    10     3    19 2   
    11     4    30 1   
    12     4    31 1   
    13     4    32 1   
    14     5     6 1   
    15     5    10 1   
    16     5    33 1   
    17     6     7 1   
    18     6    34 1   
    19     6    35 1   
    20     7     8 1   
    21     7    36 1   
    22     7    37 1   
    23     8     9 1   
    24     8    20 1   
    25     8    38 1   
    26     9    10 1   
    27     9    39 1   
    28     9    40 1   
    29    10    41 1   
    30    10    42 1   
    31    11    12 2   
    32    11    15 1   
    33    11    43 1   
    34    12    13 1   
    35    12    56 1   
    36    13    14 1   
    37    14    15 2   
    38    14    57 1   
    39    15    16 1   
    40    17    57 1   
    41    18    57 1   
    42    20    44 1   
    43    20    45 1   
    44    20    46 1   
    45    21    22 1   
    46    21    56 3   
    47    22    23 1   
    48    22    24 1   
    49    22    25 1   
    50    23    47 1   
    51    23    48 1   
    52    23    49 1   
    53    24    50 1   
    54    24    51 1   
    55    24    52 1   
    56    25    53 1   
    57    25    54 1   
    58    25    55 1   
@<TRIPOS>SUBSTRUCTURE
     1 0S2         1 TEMP              0 ****  ****    0 ROOT
