@<TRIPOS>MOLECULE
0S2
   57    58     1     0     0
SMALL
bcc


@<TRIPOS>ATOM
      1 C12         -0.0660    -0.3830    -0.0110 c3         1 0S2      -0.113100
      2 C11          1.4580    -0.2810     0.0270 c3         1 0S2       0.116700
      3 C14          3.2360    -1.1120    -1.4660 c          1 0S2       0.687100
      4 C13          1.9130    -0.1360     1.4830 c3         1 0S2      -0.113100
      5 C15          3.7950    -2.2150    -2.3560 c3         1 0S2      -0.142700
      6 C17          4.6330    -3.1800    -1.5310 c3         1 0S2      -0.064400
      7 C18          5.2370    -4.2550    -2.4100 c3         1 0S2      -0.071400
      8 C19          6.0730    -3.6510    -3.5290 c3         1 0S2      -0.066700
      9 C20          5.2340    -2.6780    -4.3440 c3         1 0S2      -0.071400
     10 C21          4.6340    -1.5990    -3.4670 c3         1 0S2      -0.064400
     11 C02          1.7590    -3.5310     0.5400 cc         1 0S2      -0.115000
     12 C03          1.0620    -4.7210     0.4080 cd         1 0S2      -0.088100
     13 S04          0.1970    -4.7550    -1.0400 ss         1 0S2       0.068200
     14 C05          0.6940    -3.2480    -1.5230 cd         1 0S2      -0.111700
     15 C06          1.5480    -2.6590    -0.5880 cc         1 0S2      -0.035400
     16 N07          2.1320    -1.3790    -0.6630 n          1 0S2      -0.357000
     17 O09         -0.7900    -1.9350    -2.8430 o          1 0S2      -0.801800
     18 O10          0.9660    -2.8890    -3.8530 o          1 0S2      -0.801800
     19 O16          3.7580     0.0250    -1.4340 o          1 0S2      -0.650100
     20 C22          6.6440    -4.7370    -4.4140 c3         1 0S2      -0.087100
     21 C23          1.0310    -6.6790     2.0980 c1         1 0S2      -0.187100
     22 C24          1.0100    -7.7750     3.0360 c3         1 0S2       0.047100
     23 C25          1.2740    -7.2550     4.4490 c3         1 0S2      -0.082767
     24 C26         -0.3570    -8.4600     3.0040 c3         1 0S2      -0.082767
     25 C27          2.0870    -8.7960     2.6710 c3         1 0S2      -0.082767
     26 H1          -0.4280    -0.6440    -1.0410 hc         1 0S2       0.040700
     27 H2          -0.4970     0.6010     0.2920 hc         1 0S2       0.040700
     28 H3          -0.4270    -1.1670     0.6960 hc         1 0S2       0.040700
     29 H4           1.7560     0.6690    -0.5180 h1         1 0S2       0.071700
     30 H5           3.0090     0.0630     1.5340 hc         1 0S2       0.040700
     31 H6           1.6870    -1.0610     2.0650 hc         1 0S2       0.040700
     32 H7           1.3690     0.7210     1.9460 hc         1 0S2       0.040700
     33 H8           2.9270    -2.7700    -2.8350 hc         1 0S2       0.138700
     34 H9           3.9890    -3.6560    -0.7440 hc         1 0S2       0.046450
     35 H10          5.4500    -2.6150    -1.0100 hc         1 0S2       0.046450
     36 H11          5.8770    -4.9320    -1.7870 hc         1 0S2       0.039450
     37 H12          4.4160    -4.8770    -2.8560 hc         1 0S2       0.039450
     38 H13          6.9260    -3.0800    -3.0640 hc         1 0S2       0.036700
     39 H14          5.8730    -2.2060    -5.1340 hc         1 0S2       0.039450
     40 H15          4.4100    -3.2380    -4.8610 hc         1 0S2       0.039450
     41 H16          3.9830    -0.9270    -4.0850 hc         1 0S2       0.046450
     42 H17          5.4450    -0.9670    -3.0200 hc         1 0S2       0.046450
     43 H18          2.3920    -3.2690     1.3900 ha         1 0S2       0.146000
     44 H20          7.2760    -4.2900    -5.2180 hc         1 0S2       0.025700
     45 H21          5.8220    -5.3220    -4.8940 hc         1 0S2       0.025700
     46 H22          7.2730    -5.4380    -3.8140 hc         1 0S2       0.025700
     47 H23          0.4930    -6.5140     4.7400 hc         1 0S2       0.034811
     48 H24          1.2560    -8.1030     5.1740 hc         1 0S2       0.034811
     49 H25          2.2730    -6.7600     4.4970 hc         1 0S2       0.034811
     50 H26         -1.1590    -7.7340     3.2770 hc         1 0S2       0.034811
     51 H27         -0.5660    -8.8570     1.9830 hc         1 0S2       0.034811
     52 H28         -0.3730    -9.3060     3.7310 hc         1 0S2       0.034811
     53 H29          2.0690    -9.6430     3.3980 hc         1 0S2       0.034811
     54 H30          3.0950    -8.3190     2.6970 hc         1 0S2       0.034811
     55 H31          1.9070    -9.1970     1.6450 hc         1 0S2       0.034811
     56 C01          1.0460    -5.7710     1.3150 ch         1 0S2      -0.034000
     57 C08          0.2540    -2.6360    -2.8450 c          1 0S2       0.934200
@<TRIPOS>BOND
     1     1     2 1   
     2     1    26 1   
     3     1    27 1   
     4     1    28 1   
     5     2     4 1   
     6     2    16 1   
     7     2    29 1   
     8     3     5 1   
     9     3    16 1   
    10     3    19 2   
    11     4    30 1   
    12     4    31 1   
    13     4    32 1   
    14     5     6 1   
    15     5    10 1   
    16     5    33 1   
    17     6     7 1   
    18     6    34 1   
    19     6    35 1   
    20     7     8 1   
    21     7    36 1   
    22     7    37 1   
    23     8     9 1   
    24     8    20 1   
    25     8    38 1   
    26     9    10 1   
    27     9    39 1   
    28     9    40 1   
    29    10    41 1   
    30    10    42 1   
    31    11    12 2   
    32    11    15 1   
    33    11    43 1   
    34    12    13 1   
    35    12    56 1   
    36    13    14 1   
    37    14    15 2   
    38    14    57 1   
    39    15    16 1   
    40    17    57 1   
    41    18    57 1   
    42    20    44 1   
    43    20    45 1   
    44    20    46 1   
    45    21    22 1   
    46    21    56 3   
    47    22    23 1   
    48    22    24 1   
    49    22    25 1   
    50    23    47 1   
    51    23    48 1   
    52    23    49 1   
    53    24    50 1   
    54    24    51 1   
    55    24    52 1   
    56    25    53 1   
    57    25    54 1   
    58    25    55 1   
@<TRIPOS>SUBSTRUCTURE
     1 0S2         1 TEMP              0 ****  ****    0 ROOT
