@<TRIPOS>MOLECULE
molecule
   56    57     1     0     0
SMALL
bcc


@<TRIPOS>ATOM
      1 C01          0.0000     0.0000     0.0000 cc         1 0S3      -0.136000
      2 C02          1.3740     0.0000     0.0000 cc         1 0S3       0.015600
      3 C03          1.9420     0.0000     1.2530 cd         1 0S3       0.033300
      4 S04          0.6790     0.0010     2.4740 ss         1 0S3      -0.074800
      5 C05         -0.5720     0.0060     1.2380 cc         1 0S3      -0.020100
      6 C06         -1.9800     0.0100     1.4940 cg         1 0S3      -0.056000
      7 C07         -3.1330     0.0250     1.7200 c1         1 0S3      -0.220100
      8 C08         -4.7990    -0.2910     1.7470 c3         1 0S3       0.068100
      9 C09         -4.9550    -1.8990     1.5650 c3         1 0S3      -0.080767
     10 C10         -5.4010     0.3510     0.2520 c3         1 0S3      -0.080767
     11 C11         -5.2690     0.3950     2.7980 c3         1 0S3      -0.080767
     12 N12          2.1300    -0.0010    -1.1730 n          1 0S3      -0.194400
     13 C13          1.9810     0.9920    -2.0720 c          1 0S3       0.707100
     14 N14          3.0210    -1.0080    -1.4100 n3         1 0S3      -0.403600
     15 C15          1.1120     2.1790    -1.7450 c3         1 0S3      -0.146700
     16 O16          2.5450     0.9300    -3.1430 o          1 0S3      -0.643100
     17 C17          1.9440     3.2360    -1.0170 c3         1 0S3      -0.370400
     18 C18          1.0620     4.4410    -0.6850 c3         1 0S3       0.056100
     19 C19          0.5030     5.0350    -1.9800 c3         1 0S3      -0.332700
     20 C20         -0.3290     3.9790    -2.7090 c3         1 0S3       0.056100
     21 C21          0.5530     2.7740    -3.0390 c3         1 0S3      -0.370400
     22 C22         -0.3790     6.2410    -1.6480 c3         1 0S3      -0.072100
     23 C23          2.5250    -1.9160    -2.4540 c3         1 0S3       0.107600
     24 C24          4.3420    -0.4710    -1.7650 c3         1 0S3       0.107600
     25 C25          3.3310     0.0000     1.5170 c          1 0S3       0.901200
     26 O26          4.1260     0.0250     0.5950 o          1 0S3      -0.822800
     27 O27          3.7760    -0.0260     2.7910 o          1 0S3      -0.822800
     28 H1          -0.6340     0.0100    -0.8780 ha         1 0S3       0.140000
     29 H2          -4.5330    -2.4030     2.4260 hc         1 0S3       0.038811
     30 H3          -4.4310    -2.2130     0.6700 hc         1 0S3       0.038811
     31 H4          -6.0040    -2.1530     1.4760 hc         1 0S3       0.038811
     32 H5          -4.9040    -0.1370    -0.5770 hc         1 0S3       0.038811
     33 H6          -5.2070     1.4170     0.2120 hc         1 0S3       0.038811
     34 H7          -6.4680     0.1760     0.1870 hc         1 0S3       0.038811
     35 H8          -6.3470     0.2980     2.8410 hc         1 0S3       0.038811
     36 H9          -5.0050     1.4410     2.6940 hc         1 0S3       0.038811
     37 H10         -4.8350     0.0020     3.7100 hc         1 0S3       0.038811
     38 H11          0.2910     1.8680    -1.1100 hc         1 0S3       0.080700
     39 H12          2.8270     3.4530    -1.6050 hc         1 0S3       0.124200
     40 H13          1.3520     4.1380    -0.9140 hc         1 0S3       0.124200
     41 H14          0.3280     4.1460     0.0540 hc         1 0S3       0.085200
     42 H15          1.6840     5.2280    -0.2750 hc         1 0S3       0.085200
     43 H16          1.3230     5.3470    -2.6150 hc         1 0S3       0.072700
     44 H17         -1.2170     3.7680    -2.1250 hc         1 0S3       0.085200
     45 H18         -0.6230     4.3700    -3.6750 hc         1 0S3       0.085200
     46 H19          0.0500     3.7050    -2.8090 hc         1 0S3       0.124200
     47 H20          1.3740     2.9700    -3.7180 hc         1 0S3       0.124200
     48 H21         -1.1930     5.9270    -1.0060 hc         1 0S3       0.035700
     49 H22          0.2130     6.9920    -1.1390 hc         1 0S3       0.035700
     50 H23         -0.7810     6.6570    -2.5640 hc         1 0S3       0.035700
     51 H24          3.3540    -2.4760    -2.8700 h1         1 0S3       0.047533
     52 H25          2.0490    -1.3390    -3.2380 h1         1 0S3       0.047533
     53 H26          1.8060    -2.6020    -2.0230 h1         1 0S3       0.047533
     54 H27          4.8030    -0.0360    -0.8870 h1         1 0S3       0.047533
     55 H28          4.2290     0.2910    -2.5280 h1         1 0S3       0.047533
     56 H29          4.9680    -1.2700    -2.1430 h1         1 0S3       0.047533
@<TRIPOS>BOND
     1    11     8 1
     2     8    10 1
     3     8     9 1
     4     8     7 1
     5     7     6 3
     6     4     5 1
     7     4     3 1
     8    22    19 1
     9     6     5 1
    10    26    25 1
    11     5     1 2
    12    18    19 1
    13    18    17 1
    14    25     3 1
    15    25    27 1
    16    19    20 1
    17     3     2 2
    18    20    21 1
    19     1     2 1
    20    17    15 1
    21     2    12 1
    22    15    21 1
    23    15    13 1
    24    12    13 1
    25    12    14 1
    26    13    16 2
    27    23    14 1
    28    14    24 1
    29     1    28 1
    30     9    29 1
    31     9    30 1
    32     9    31 1
    33    10    32 1
    34    10    33 1
    35    10    34 1
    36    11    35 1
    37    11    36 1
    38    11    37 1
    39    15    38 1
    40    17    39 1
    41    17    40 1
    42    18    41 1
    43    18    42 1
    44    19    43 1
    45    20    44 1
    46    20    45 1
    47    21    46 1
    48    21    47 1
    49    22    48 1
    50    22    49 1
    51    22    50 1
    52    23    51 1
    53    23    52 1
    54    23    53 1
    55    24    54 1
    56    24    55 1
    57    24    56 1
@<TRIPOS>SUBSTRUCTURE
     1 0S3         1 TEMP              0 ****  ****    0 ROOT
