@<TRIPOS>MOLECULE
0S3
   57    58     1     0     0
SMALL
bcc


@<TRIPOS>ATOM
      1 C01         -0.2590    -0.0630    -0.0530 cc         1 0S3      -0.109000
      2 C02          1.1690     0.0730    -0.1170 cc         1 0S3      -0.149400
      3 C03          1.7250     0.2340     1.1620 cd         1 0S3      -0.180700
      4 S04          0.5750     0.2380     2.3310 ss         1 0S3       0.231200
      5 C05         -0.7030     0.0220     1.2590 cd         1 0S3      -0.057100
      6 C06         -2.0230    -0.0550     1.6800 ch         1 0S3      -0.109000
      7 C07         -3.1630    -0.1190     2.0460 c1         1 0S3      -0.094100
      8 C08         -4.5340    -0.1940     2.4980 c3         1 0S3       0.028100
      9 C09         -5.4740     0.2110     1.3630 c3         1 0S3      -0.085433
     10 C10         -4.8590    -1.6220     2.9340 c3         1 0S3      -0.085433
     11 C11         -4.7390     0.7510     3.6820 c3         1 0S3      -0.085433
     12 N12          1.8610     0.0630    -1.3630 n          1 0S3      -0.202400
     13 C13          2.7210     1.2280    -1.6450 c          1 0S3       0.717100
     14 N14          2.4600    -1.2120    -1.6820 nx         1 0S3      -0.472400
     15 C15          2.2240     2.5800    -1.1700 c3         1 0S3      -0.093700
     16 O16          3.6870     1.0640    -2.4010 o          1 0S3      -0.574100
     17 C17          3.4100     3.5360    -1.0920 c3         1 0S3      -0.076900
     18 C18          2.9480     4.9180    -0.6850 c3         1 0S3      -0.072400
     19 C19          1.8850     5.4520    -1.6350 c3         1 0S3      -0.069700
     20 C20          0.7100     4.4880    -1.7120 c3         1 0S3      -0.072400
     21 C21          1.1580     3.1000    -2.1240 c3         1 0S3      -0.076900
     22 C22          1.4180     6.8220    -1.1960 c3         1 0S3      -0.089100
     23 C23          3.5700    -1.6850    -0.7900 c3         1 0S3       0.082600
     24 C24          1.4320    -2.2910    -1.8170 c3         1 0S3       0.082600
     25 C25          3.2160     0.3830     1.4070 c          1 0S3       0.923200
     26 O26          3.9000     0.8420     0.4420 o          1 0S3      -0.789300
     27 O27          3.6760     0.0100     2.5090 o          1 0S3      -0.789300
     28 H1          -0.9010    -0.1920    -0.9270 ha         1 0S3       0.157000
     29 H2          -5.2590     1.2550     1.0350 hc         1 0S3       0.041367
     30 H3          -6.5320     0.1550     1.7160 hc         1 0S3       0.041367
     31 H4          -5.3490    -0.4740     0.4920 hc         1 0S3       0.041367
     32 H5          -4.7250    -2.3290     2.0810 hc         1 0S3       0.041367
     33 H6          -4.1890    -1.9350     3.7690 hc         1 0S3       0.041367
     34 H7          -5.9180    -1.6750     3.2830 hc         1 0S3       0.041367
     35 H8          -4.5150     1.8020     3.3820 hc         1 0S3       0.041367
     36 H9          -4.0690     0.4660     4.5270 hc         1 0S3       0.041367
     37 H10         -5.7990     0.6930     4.0270 hc         1 0S3       0.041367
     38 H11          1.7910     2.4750    -0.1350 hc         1 0S3       0.096700
     39 H12          3.9230     3.5780    -2.0880 hc         1 0S3       0.059950
     40 H13          4.1440     3.1300    -0.3440 hc         1 0S3       0.059950
     41 H14          2.5360     4.8880     0.3580 hc         1 0S3       0.044450
     42 H15          3.8270     5.6130    -0.6800 hc         1 0S3       0.044450
     43 H16          2.3400     5.5380    -2.6620 hc         1 0S3       0.047700
     44 H17         -0.0400     4.8700    -2.4530 hc         1 0S3       0.044450
     45 H18          0.2040     4.4380    -0.7120 hc         1 0S3       0.044450
     46 H19          1.5710     3.1310    -3.1660 hc         1 0S3       0.059950
     47 H20          0.2760     2.4070    -2.1230 hc         1 0S3       0.059950
     48 H21          0.6550     7.2200    -1.9080 hc         1 0S3       0.033700
     49 H22          0.9620     6.7760    -0.1780 hc         1 0S3       0.033700
     50 H23          2.2790     7.5320    -1.1650 hc         1 0S3       0.033700
     51 H24          4.3720    -0.8870    -0.7460 hx         1 0S3       0.102867
     52 H25          3.9740    -2.6400    -1.2110 hx         1 0S3       0.102867
     53 H26          3.1830    -1.8420     0.2530 hx         1 0S3       0.102867
     54 H27          0.6540    -1.9870    -2.5660 hx         1 0S3       0.102867
     55 H28          1.9530    -3.2230    -2.1590 hx         1 0S3       0.102867
     56 H29          0.9400    -2.4670    -0.8230 hx         1 0S3       0.102867
     57 H141         2.8810    -1.0520    -2.6180 hn         1 0S3       0.456800
@<TRIPOS>BOND
     1     1     2 1   
     2     1     5 2   
     3     1    28 1   
     4     2     3 2   
     5     2    12 1   
     6     3     4 1   
     7     3    25 1   
     8     4     5 1   
     9     5     6 1   
    10     6     7 3   
    11     7     8 1   
    12     8     9 1   
    13     8    10 1   
    14     8    11 1   
    15     9    29 1   
    16     9    30 1   
    17     9    31 1   
    18    10    32 1   
    19    10    33 1   
    20    10    34 1   
    21    11    35 1   
    22    11    36 1   
    23    11    37 1   
    24    12    13 1   
    25    12    14 1   
    26    13    15 1   
    27    13    16 2   
    28    14    23 1   
    29    14    24 1   
    30    14    57 1   
    31    15    17 1   
    32    15    21 1   
    33    15    38 1   
    34    17    18 1   
    35    17    39 1   
    36    17    40 1   
    37    18    19 1   
    38    18    41 1   
    39    18    42 1   
    40    19    20 1   
    41    19    22 1   
    42    19    43 1   
    43    20    21 1   
    44    20    44 1   
    45    20    45 1   
    46    21    46 1   
    47    21    47 1   
    48    22    48 1   
    49    22    49 1   
    50    22    50 1   
    51    23    51 1   
    52    23    52 1   
    53    23    53 1   
    54    24    54 1   
    55    24    55 1   
    56    24    56 1   
    57    25    26 1   
    58    25    27 1   
@<TRIPOS>SUBSTRUCTURE
     1 0S3         1 TEMP              0 ****  ****    0 ROOT
