@<TRIPOS>MOLECULE
0S3
   56    57     1     0     0
SMALL
bcc


@<TRIPOS>ATOM
      1 C01          0.0000     0.0000     0.0000 cc         1 0S3      -0.116000
      2 C02          1.3740     0.0000     0.0000 cc         1 0S3      -0.142400
      3 C03          1.9420     0.0000     1.2530 cd         1 0S3       0.106300
      4 S04          0.6790     0.0010     2.4740 ss         1 0S3      -0.214800
      5 C05         -0.5720     0.0060     1.2380 cd         1 0S3       0.060900
      6 C06         -1.9800     0.0100     1.4940 ch         1 0S3      -0.043000
      7 C07         -3.1330     0.0250     1.7200 c1         1 0S3      -0.240100
      8 C08         -4.7990    -0.2910     1.7470 c3         1 0S3       0.122100
      9 C09         -4.9550    -1.8990     1.5650 c3         1 0S3       0.000900
     10 C10         -5.4010     0.3510     0.2520 c3         1 0S3       0.000900
     11 C11         -5.2690     0.3950     2.7980 c3         1 0S3       0.000900
     12 N12          2.1300    -0.0010    -1.1730 n          1 0S3       0.173600
     13 C13          1.9810     0.9920    -2.0720 c          1 0S3       0.604100
     14 N14          3.0210    -1.0080    -1.4100 n3         1 0S3      -0.346600
     15 C15          1.1120     2.1790    -1.7450 c3         1 0S3      -0.192700
     16 O16          2.5450     0.9300    -3.1430 o          1 0S3      -0.690100
     17 C17          1.9440     3.2360    -1.0170 c3         1 0S3      -0.211400
     18 C18          1.0620     4.4410    -0.6850 c3         1 0S3       0.303100
     19 C19          0.5030     5.0350    -1.9800 c3         1 0S3      -0.314700
     20 C20         -0.3290     3.9790    -2.7090 c3         1 0S3       0.303100
     21 C21          0.5530     2.7740    -3.0390 c3         1 0S3      -0.211400
     22 C22         -0.3790     6.2410    -1.6480 c3         1 0S3       0.037900
     23 C23          2.5250    -1.9160    -2.4540 c3         1 0S3       0.101600
     24 C24          4.3420    -0.4710    -1.7650 c3         1 0S3       0.101600
     25 C25          3.3310     0.0000     1.5170 c          1 0S3       0.987200
     26 O26          4.1260     0.0250     0.5950 o          1 0S3      -0.860300
     27 O27          3.7760    -0.0260     2.7910 o          1 0S3      -0.860300
     28 H1          -0.6340     0.0100    -0.8780 ha         1 0S3       0.120000
     29 H2          -4.5330    -2.4030     2.4260 hc         1 0S3       0.007367
     30 H3          -4.4310    -2.2130     0.6700 hc         1 0S3       0.007367
     31 H4          -6.0040    -2.1530     1.4760 hc         1 0S3       0.007367
     32 H5          -4.9040    -0.1370    -0.5770 hc         1 0S3       0.007367
     33 H6          -5.2070     1.4170     0.2120 hc         1 0S3       0.007367
     34 H7          -6.4680     0.1760     0.1870 hc         1 0S3       0.007367
     35 H8          -6.3470     0.2980     2.8410 hc         1 0S3       0.007367
     36 H9          -5.0050     1.4410     2.6940 hc         1 0S3       0.007367
     37 H10         -4.8350     0.0020     3.7100 hc         1 0S3       0.007367
     38 H11          0.2910     1.8680    -1.1100 hc         1 0S3       0.075700
     39 H12          2.8270     3.4530    -1.6050 hc         1 0S3      -0.011050
     40 H13          1.3520     4.1380    -0.9140 hc         1 0S3      -0.011050
     41 H14          0.3280     4.1460     0.0540 hc         1 0S3       0.027950
     42 H15          1.6840     5.2280    -0.2750 hc         1 0S3       0.027950
     43 H16          1.3230     5.3470    -2.6150 hc         1 0S3       0.045700
     44 H17         -1.2170     3.7680    -2.1250 hc         1 0S3       0.027950
     45 H18         -0.6230     4.3700    -3.6750 hc         1 0S3       0.027950
     46 H19          0.0500     3.7050    -2.8090 hc         1 0S3      -0.011050
     47 H20          1.3740     2.9700    -3.7180 hc         1 0S3      -0.011050
     48 H21         -1.1930     5.9270    -1.0060 hc         1 0S3       0.001700
     49 H22          0.2130     6.9920    -1.1390 hc         1 0S3       0.001700
     50 H23         -0.7810     6.6570    -2.5640 hc         1 0S3       0.001700
     51 H24          3.3540    -2.4760    -2.8700 h1         1 0S3       0.026033
     52 H25          2.0490    -1.3390    -3.2380 h1         1 0S3       0.026033
     53 H26          1.8060    -2.6020    -2.0230 h1         1 0S3       0.026033
     54 H27          4.8030    -0.0360    -0.8870 h1         1 0S3       0.026033
     55 H28          4.2290     0.2910    -2.5280 h1         1 0S3       0.026033
     56 H29          4.9680    -1.2700    -2.1430 h1         1 0S3       0.026033
@<TRIPOS>BOND
     1     1     2 1   
     2     1     5 2   
     3     1    28 1   
     4     2     3 2   
     5     2    12 1   
     6     3     4 1   
     7     3    25 1   
     8     4     5 1   
     9     5     6 1   
    10     6     7 3   
    11     7     8 1   
    12     8     9 1   
    13     8    10 1   
    14     8    11 1   
    15     9    29 1   
    16     9    30 1   
    17     9    31 1   
    18    10    32 1   
    19    10    33 1   
    20    10    34 1   
    21    11    35 1   
    22    11    36 1   
    23    11    37 1   
    24    12    13 1   
    25    12    14 1   
    26    13    15 1   
    27    13    16 2   
    28    14    23 1   
    29    14    24 1   
    30    15    17 1   
    31    15    21 1   
    32    15    38 1   
    33    17    18 1   
    34    17    39 1   
    35    17    40 1   
    36    18    19 1   
    37    18    41 1   
    38    18    42 1   
    39    19    20 1   
    40    19    22 1   
    41    19    43 1   
    42    20    21 1   
    43    20    44 1   
    44    20    45 1   
    45    21    46 1   
    46    21    47 1   
    47    22    48 1   
    48    22    49 1   
    49    22    50 1   
    50    23    51 1   
    51    23    52 1   
    52    23    53 1   
    53    24    54 1   
    54    24    55 1   
    55    24    56 1   
    56    25    26 1   
    57    25    27 1   
@<TRIPOS>SUBSTRUCTURE
     1 0S3         1 TEMP              0 ****  ****    0 ROOT
