@<TRIPOS>MOLECULE
molecule
   72    73     1     0     0
SMALL
bcc


@<TRIPOS>ATOM
      1 C1           0.0000     0.0000     0.0000 ca         1 0S4      -0.221000
      2 C2           1.3870     0.0000     0.0000 ca         1 0S4       0.130100
      3 C3           2.0780     0.0000     1.2040 ca         1 0S4      -0.099300
      4 C4           1.3830     0.0010     2.3980 ca         1 0S4      -0.091000
      5 C5           0.0010     0.0010     2.3940 ca         1 0S4      -0.098300
      6 C6          -0.6910     0.0010     1.1980 ca         1 0S4      -0.100000
      7 C7          -0.7550     0.0010     3.6990 c3         1 0S4       0.040600
      8 C8          -2.2240    -0.2010     3.4280 ca         1 0S4      -0.111300
      9 C9          -0.2390    -1.1330     4.5860 c3         1 0S4      -0.070400
     10 C10         -0.5460     1.3390     4.4090 c3         1 0S4      -0.070400
     11 C11         -0.9260     2.4820     3.4650 c3         1 0S4      -0.099100
     12 C12         -0.3180    -2.4560     3.8210 c3         1 0S4      -0.099100
     13 C13         -2.6440    -1.2750     2.6640 ca         1 0S4      -0.096000
     14 C14         -3.9900    -1.4620     2.4150 ca         1 0S4      -0.118300
     15 C15         -4.9200    -0.5710     2.9320 ca         1 0S4       0.143100
     16 C16         -4.4470    -2.6310     1.5820 c3         1 0S4      -0.034800
     17 C17         -4.4960     0.5050     3.6980 ca         1 0S4      -0.221000
     18 C18         -3.1490     0.6840     3.9490 ca         1 0S4      -0.094000
     19 O19          2.0670    -0.0020    -1.1760 os         1 0S4      -0.292900
     20 O22          2.5610    -0.0060    -5.9370 oh         1 0S4      -0.355100
     21 C20          1.2920    -0.0020    -2.3750 c3         1 0S4       0.077400
     22 C21          2.2100    -0.0030    -3.5690 c          1 0S4       0.665100
     23 N23          1.6970    -0.0050    -4.8140 ns         1 0S4      -0.476400
     24 O24          3.4130    -0.0040    -3.4080 o          1 0S4      -0.539100
     25 C25         -9.5530     0.7840     3.5770 c3         1 0S4      -0.083000
     26 C26        -10.9890     0.4190     3.1970 c3         1 0S4      -0.084100
     27 C27         -9.2630     2.2240     3.1460 c3         1 0S4      -0.084100
     28 C28         -9.3780     0.6600     5.0920 c3         1 0S4      -0.084100
     29 C29         -7.1450     0.2020     3.2520 c3         1 0S4       0.127400
     30 O30         -6.2440    -0.7520     2.6880 os         1 0S4      -0.327900
     31 C31         -8.5810    -0.1630     2.8720 c3         1 0S4       0.160100
     32 O32         -8.7440    -0.0470     1.4570 oh         1 0S4      -0.597800
     33 C33          3.5840    -0.0010     1.2080 c3         1 0S4      -0.038800
     34 H1          -0.5420    -0.0000    -0.9380 ha         1 0S4       0.127000
     35 H2           1.9220     0.0010     3.3370 ha         1 0S4       0.139000
     36 H3          -1.7740     0.0010     1.1980 ha         1 0S4       0.151000
     37 H4          -0.8460    -1.1970     5.4810 hc         1 0S4       0.044450
     38 H5           0.7900    -0.9370     4.8610 hc         1 0S4       0.044450
     39 H6          -1.1680     1.3800     5.2950 hc         1 0S4       0.044450
     40 H7           0.4950     1.4380     4.6940 hc         1 0S4       0.044450
     41 H8          -1.4750     3.2370     4.0150 hc         1 0S4       0.038200
     42 H9          -0.0280     2.9200     3.0480 hc         1 0S4       0.038200
     43 H10         -1.5460     2.0970     2.6640 hc         1 0S4       0.038200
     44 H11         -0.1280    -2.2780     2.7700 hc         1 0S4       0.038200
     45 H12          0.4240    -3.1430     4.2110 hc         1 0S4       0.038200
     46 H13         -1.3060    -2.8850     3.9420 hc         1 0S4       0.038200
     47 H14         -1.9170    -1.9690     2.2610 ha         1 0S4       0.150000
     48 H15         -4.9290    -2.2680     0.6830 hc         1 0S4       0.043033
     49 H16         -5.1490    -3.2280     2.1520 hc         1 0S4       0.043033
     50 H17         -3.5920    -3.2390     1.3130 hc         1 0S4       0.043033
     51 H18         -5.2200     1.2000     4.1050 ha         1 0S4       0.134000
     52 H19         -2.8170     1.5240     4.5470 ha         1 0S4       0.141000
     53 H20          2.0480     0.0080    -6.7280 ho         1 0S4       0.400000
     54 H21          0.6670     0.8820    -2.4010 h1         1 0S4       0.053200
     55 H22          0.6660    -0.8870    -2.4000 h1         1 0S4       0.053200
     56 H23          0.7050    -0.0030    -4.9470 hn         1 0S4       0.317500
     57 H24        -11.6800     1.0080     3.7870 hc         1 0S4       0.039144
     58 H25        -11.1480     0.6220     2.1450 hc         1 0S4       0.039144
     59 H26        -11.1570    -0.6340     3.3900 hc         1 0S4       0.039144
     60 H27         -9.0910     2.2540     2.0770 hc         1 0S4       0.039144
     61 H28        -10.1100     2.8530     3.3930 hc         1 0S4       0.039144
     62 H29         -8.3830     2.5850     3.6640 hc         1 0S4       0.039144
     63 H30        -10.2620     1.0410     5.5900 hc         1 0S4       0.039144
     64 H31         -8.5130     1.2340     5.4030 hc         1 0S4       0.039144
     65 H32         -9.2350    -0.3810     5.3550 hc         1 0S4       0.039144
     66 H33         -6.9110     1.1890     2.8710 h1         1 0S4       0.047700
     67 H34         -7.0450     0.1990     4.3310 h1         1 0S4       0.047700
     68 H35         -8.7860    -1.1830     3.1770 h1         1 0S4       0.043700
     69 H36         -9.1030    -0.8490     1.1150 ho         1 0S4       0.405000
     70 H37          3.9460    -0.8940     0.7120 hc         1 0S4       0.047700
     71 H38          3.9430     0.0150     2.2300 hc         1 0S4       0.047700
     72 H39          3.9470     0.8750     0.6840 hc         1 0S4       0.047700
@<TRIPOS>BOND
     1    26    25 1   
     2    28    25 1   
     3    25    27 1   
     4    25    31 1   
     5    31    29 1   
     6    31    32 1   
     7    29    30 1   
     8    30    15 1   
     9    17    15 ar  
    10    17    18 ar  
    11    15    14 ar  
    12    20    23 1   
    13    18     8 ar  
    14    23    22 1   
    15    12     9 1   
    16    14    16 1   
    17    14    13 ar  
    18    19     2 1   
    19    19    21 1   
    20     1     2 ar  
    21     1     6 ar  
    22     8    13 ar  
    23     8     7 1   
    24     2     3 ar  
    25     6     5 ar  
    26    22    21 1   
    27    22    24 2   
    28     3    33 1   
    29     3     4 ar  
    30     5     4 ar  
    31     5     7 1   
    32     9     7 1   
    33     7    10 1   
    34    10    11 1   
    35     1    34 1   
    36     4    35 1   
    37     6    36 1   
    38     9    37 1   
    39     9    38 1   
    40    10    39 1   
    41    10    40 1   
    42    11    41 1   
    43    11    42 1   
    44    11    43 1   
    45    12    44 1   
    46    12    45 1   
    47    12    46 1   
    48    13    47 1   
    49    16    48 1   
    50    16    49 1   
    51    16    50 1   
    52    17    51 1   
    53    18    52 1   
    54    20    53 1   
    55    21    54 1   
    56    21    55 1   
    57    23    56 1   
    58    26    57 1   
    59    26    58 1   
    60    26    59 1   
    61    27    60 1   
    62    27    61 1   
    63    27    62 1   
    64    28    63 1   
    65    28    64 1   
    66    28    65 1   
    67    29    66 1   
    68    29    67 1   
    69    31    68 1   
    70    32    69 1   
    71    33    70 1   
    72    33    71 1   
    73    33    72 1   
@<TRIPOS>SUBSTRUCTURE
     1 0S4         1 TEMP              0 ****  ****    0 ROOT
