@<TRIPOS>MOLECULE
0S4
   73    74     1     0     0
SMALL
bcc


@<TRIPOS>ATOM
      1 C1          -0.1500    -0.6170     0.3060 ca         1 0S4      -0.225000
      2 C2           1.2390    -0.4790     0.2020 ca         1 0S4       0.015100
      3 C3           2.0340    -0.1810     1.3190 ca         1 0S4      -0.046300
      4 C4           1.3890     0.0080     2.5500 ca         1 0S4      -0.099000
      5 C5           0.0000    -0.0950     2.6790 ca         1 0S4      -0.031300
      6 C6          -0.7590    -0.4250     1.5420 ca         1 0S4      -0.086000
      7 C7          -0.6840     0.0460     4.0200 c3         1 0S4       0.044600
      8 C8          -2.0610     0.6470     3.8760 ca         1 0S4      -0.114300
      9 C9           0.1100     0.9380     4.9970 c3         1 0S4      -0.074400
     10 C10         -0.7070    -1.3630     4.6510 c3         1 0S4      -0.074400
     11 C11         -1.5170    -2.3820     3.8950 c3         1 0S4      -0.100600
     12 C12          0.3770     2.3360     4.5080 c3         1 0S4      -0.100600
     13 C13         -3.1200     0.2570     4.7080 ca         1 0S4      -0.094000
     14 C14         -4.3820     0.8420     4.6090 ca         1 0S4      -0.090300
     15 C15         -4.5840     1.8620     3.6490 ca         1 0S4       0.137100
     16 C16         -5.4960     0.4180     5.4860 c3         1 0S4      -0.048800
     17 C17         -3.5330     2.2790     2.8270 ca         1 0S4      -0.205000
     18 C18         -2.2850     1.6720     2.9490 ca         1 0S4      -0.112000
     19 O19          1.9150    -0.5730    -1.0250 os         1 0S4      -0.342900
     20 O22          1.3440     1.5360    -2.7930 oh         1 0S4      -0.355300
     21 C20          1.3280    -1.4030    -1.9980 c3         1 0S4       0.072400
     22 C21          0.3320    -0.6480    -2.8580 c          1 0S4       0.504100
     23 N23          0.1920     0.8640    -2.5760 ny         1 0S4      -0.461300
     24 O24         -0.3800    -1.0640    -3.7500 o          1 0S4      -0.369100
     25 C25         -7.9190     5.1480     2.1340 c3         1 0S4      -0.046000
     26 C26         -7.1680     6.3200     2.7470 c3         1 0S4      -0.089433
     27 C27         -7.5920     5.0380     0.6540 c3         1 0S4      -0.089433
     28 C28         -9.4170     5.3770     2.3020 c3         1 0S4      -0.089433
     29 C29         -6.0630     3.4930     2.7220 c3         1 0S4       0.087400
     30 O30         -5.8620     2.3750     3.6000 os         1 0S4      -0.334900
     31 C31         -7.5490     3.8470     2.8740 c3         1 0S4       0.150100
     32 O32         -8.3380     2.7990     2.3280 oh         1 0S4      -0.594800
     33 C33          3.5050    -0.0570     1.2180 c3         1 0S4      -0.062800
     34 H1          -0.7630    -0.9380    -0.5480 ha         1 0S4       0.113000
     35 H2           2.0140     0.2320     3.4310 ha         1 0S4       0.166000
     36 H3          -1.8520    -0.5470     1.6380 ha         1 0S4       0.169000
     37 H4           1.0800     0.4320     5.2470 hc         1 0S4       0.052700
     38 H5          -0.4820     0.9940     5.9510 hc         1 0S4       0.052700
     39 H6          -1.0910    -1.2780     5.7020 hc         1 0S4       0.052700
     40 H7           0.3560    -1.7210     4.7230 hc         1 0S4       0.052700
     41 H8          -1.5450    -3.3420     4.4670 hc         1 0S4       0.040200
     42 H9          -2.5670    -2.0310     3.7430 hc         1 0S4       0.040200
     43 H10         -1.0680    -2.5860     2.8930 hc         1 0S4       0.040200
     44 H11          1.0100     2.8810     5.2500 hc         1 0S4       0.040200
     45 H12          0.9110     2.3280     3.5270 hc         1 0S4       0.040200
     46 H13         -0.5790     2.9010     4.3820 hc         1 0S4       0.040200
     47 H14         -2.9700    -0.5240     5.4700 ha         1 0S4       0.144000
     48 H15         -6.3260    -0.0090     4.8690 hc         1 0S4       0.053700
     49 H16         -5.9020     1.3020     6.0400 hc         1 0S4       0.053700
     50 H17         -5.1650    -0.3500     6.2260 hc         1 0S4       0.053700
     51 H18         -3.6730     3.0870     2.0970 ha         1 0S4       0.138000
     52 H19         -1.4570     2.0200     2.3120 ha         1 0S4       0.121000
     53 H20          2.0160     1.2420    -2.1300 ho         1 0S4       0.487000
     54 H21          0.8060    -2.3000    -1.5620 h1         1 0S4       0.145700
     55 H22          2.1820    -1.7270    -2.6660 h1         1 0S4       0.145700
     56 H23         -0.1330     0.9940    -1.5970 hn         1 0S4       0.482800
     57 H24         -6.0790     6.2710     2.5060 hc         1 0S4       0.040478
     58 H25         -7.5710     7.2790     2.3390 hc         1 0S4       0.040478
     59 H26         -7.2910     6.3280     3.8560 hc         1 0S4       0.040478
     60 H27         -7.9850     5.9290     0.1080 hc         1 0S4       0.040478
     61 H28         -6.4880     4.9850     0.4960 hc         1 0S4       0.040478
     62 H29         -8.0620     4.1170     0.2290 hc         1 0S4       0.040478
     63 H30         -9.7270     6.3030     1.7610 hc         1 0S4       0.040478
     64 H31         -9.6710     5.4900     3.3830 hc         1 0S4       0.040478
     65 H32         -9.9840     4.5080     1.8890 hc         1 0S4       0.040478
     66 H33         -5.4060     4.3410     3.0370 h1         1 0S4       0.052700
     67 H34         -5.8380     3.1840     1.6680 h1         1 0S4       0.052700
     68 H35         -7.7860     3.9660     3.9700 h1         1 0S4       0.053700
     69 H36         -8.1590     2.0160     2.8640 ho         1 0S4       0.412000
     70 H37          3.9010    -0.6590     0.3630 hc         1 0S4       0.062367
     71 H38          3.7890     1.0140     1.0570 hc         1 0S4       0.062367
     72 H39          3.9970    -0.4100     2.1590 hc         1 0S4       0.062367
     73 H232        -0.5010     1.2860    -3.2320 hn         1 0S4       0.482800
@<TRIPOS>BOND
     1     1     2 ar  
     2     1     6 ar  
     3     1    34 1   
     4     2     3 ar  
     5     2    19 1   
     6     3     4 ar  
     7     3    33 1   
     8     4     5 ar  
     9     4    35 1   
    10     5     6 ar  
    11     5     7 1   
    12     6    36 1   
    13     7     8 1   
    14     7     9 1   
    15     7    10 1   
    16     8    13 ar  
    17     8    18 ar  
    18     9    12 1   
    19     9    37 1   
    20     9    38 1   
    21    10    11 1   
    22    10    39 1   
    23    10    40 1   
    24    11    41 1   
    25    11    42 1   
    26    11    43 1   
    27    12    44 1   
    28    12    45 1   
    29    12    46 1   
    30    13    14 ar  
    31    13    47 1   
    32    14    15 ar  
    33    14    16 1   
    34    15    17 ar  
    35    15    30 1   
    36    16    48 1   
    37    16    49 1   
    38    16    50 1   
    39    17    18 ar  
    40    17    51 1   
    41    18    52 1   
    42    19    21 1   
    43    20    23 1   
    44    20    53 1   
    45    21    22 1   
    46    21    54 1   
    47    21    55 1   
    48    22    23 1   
    49    22    24 2   
    50    23    56 1   
    51    23    73 1   
    52    25    26 1   
    53    25    27 1   
    54    25    28 1   
    55    25    31 1   
    56    26    57 1   
    57    26    58 1   
    58    26    59 1   
    59    27    60 1   
    60    27    61 1   
    61    27    62 1   
    62    28    63 1   
    63    28    64 1   
    64    28    65 1   
    65    29    30 1   
    66    29    31 1   
    67    29    66 1   
    68    29    67 1   
    69    31    32 1   
    70    31    68 1   
    71    32    69 1   
    72    33    70 1   
    73    33    71 1   
    74    33    72 1   
@<TRIPOS>SUBSTRUCTURE
     1 0S4         1 TEMP              0 ****  ****    0 ROOT
