@<TRIPOS>MOLECULE
0S5
   59    61     1     0     0
SMALL
bcc


@<TRIPOS>ATOM
      1 C26          0.0000     0.0000     0.0000 ca         1 0S5      -0.075000
      2 C25          1.3830     0.0000     0.0000 ca         1 0S5      -0.110000
      3 C27         -0.6980     0.0040     1.1950 ca         1 0S5      -0.110000
      4 C24          2.0770     0.0000     1.1920 ca         1 0S5      -0.057000
      5 C28         -0.0180     0.0080     2.3950 ca         1 0S5      -0.057000
      6 C23          1.3780    -0.0020     2.4020 ca         1 0S5      -0.164600
      7 C29          6.1430     5.3010     6.9250 c          1 0S5       0.611900
      8 C21          2.1140     0.0030     3.6830 c          1 0S5       0.581700
      9 C18          4.1320    -0.0030     4.8560 c          1 0S5       0.553100
     10 C11          5.6130     1.6940     6.7010 c          1 0S5       0.610100
     11 C8           5.5790     4.5570    12.1980 c3         1 0S5      -0.024900
     12 C9           6.3650     3.2420    12.3460 c3         1 0S5      -0.024900
     13 C15          7.5770    -1.2640     5.5330 c3         1 0S5      -0.028400
     14 C16          6.1680    -1.4680     4.9160 c3         1 0S5      -0.027400
     15 C7           5.0330     4.5840    10.7550 c3         1 0S5      -0.022400
     16 C10          6.2680     2.5160    10.9880 c3         1 0S5      -0.022400
     17 C14          7.3540    -0.1030     6.5260 c3         1 0S5       0.047000
     18 C17          5.6400    -0.0130     4.8590 c3         1 0S5      -0.038300
     19 C6           5.9860     3.6490     9.9700 c3         1 0S5      -0.070700
     20 C5           5.2970     3.0970     8.7220 c3         1 0S5      -0.029400
     21 C3           7.4030     3.2670     7.3870 c3         1 0S5       0.054000
     22 C4           6.3120     2.3160     7.8830 c3         1 0S5      -0.145700
     23 N13          6.1530     0.6230     6.0850 n          1 0S5      -0.149800
     24 N20          3.4620    -0.0070     3.6870 ns         1 0S5      -0.165500
     25 O30          5.6620     6.1020     6.1530 o          1 0S5      -0.626100
     26 O22          1.5030     0.0150     4.7340 o          1 0S5      -0.552100
     27 O19          3.5240     0.0100     5.9030 o          1 0S5      -0.520100
     28 O12          4.5640     2.1560     6.3040 o          1 0S5      -0.597100
     29 O1           6.9700     4.0520     5.0590 oh         1 0S5      -0.435100
     30 H1          -0.5390    -0.0020    -0.9400 ha         1 0S5       0.103000
     31 H2           1.9230    -0.0010    -0.9390 ha         1 0S5       0.106000
     32 H3          -1.7820     0.0080     1.1870 ha         1 0S5       0.106000
     33 H4           3.1600    -0.0040     1.1910 ha         1 0S5       0.113000
     34 H5          -0.5660     0.0090     3.3290 ha         1 0S5       0.113000
     35 H6           6.0990     5.4830     7.9920 h5         1 0S5       0.000200
     36 H7           4.7590     4.5790    12.9050 hc         1 0S5       0.012200
     37 H8           6.2390     5.4020    12.3600 hc         1 0S5       0.012200
     38 H9           5.9210     2.6330    13.1240 hc         1 0S5       0.012200
     39 H10          7.4010     3.4550    12.5790 hc         1 0S5       0.012200
     40 H11          8.2910    -0.9810     4.7690 hc         1 0S5       0.024700
     41 H12          5.5480    -2.0780     5.5630 hc         1 0S5       0.032200
     42 H13          6.2400    -1.8920     3.9220 hc         1 0S5       0.032200
     43 H14          4.0200     4.2000    10.7280 hc         1 0S5       0.018700
     44 H15          5.0750     5.5900    10.3540 hc         1 0S5       0.018700
     45 H16          7.2050     2.0240    10.7560 hc         1 0S5       0.018700
     46 H17          5.4510     1.8040    10.9980 hc         1 0S5       0.018700
     47 H18          7.2000    -0.4960     7.5230 h1         1 0S5       0.015200
     48 H19          6.0280     0.4930     3.9830 h1         1 0S5       0.034700
     49 H20          6.9020     4.1680     9.7130 hc         1 0S5       0.027700
     50 H21          4.8990     3.9170     8.1360 hc         1 0S5       0.047200
     51 H22          4.4900     2.4380     9.0170 hc         1 0S5       0.047200
     52 H23          7.8350     3.7920     8.2310 h1         1 0S5       0.031200
     53 H24          8.1750     2.6990     6.8820 h1         1 0S5       0.031200
     54 H25          6.7590     1.5370     8.4890 hc         1 0S5       0.046700
     55 H26          3.9640    -0.0030     2.8220 hn         1 0S5       0.174500
     56 H27          7.6030     4.6670     4.7270 ho         1 0S5       0.393000
     57 H28          7.8970    -2.1570     6.0570 hc         1 0S5       0.024700
     58 H29          8.2100     0.5610     6.5130 h1         1 0S5       0.015200
     59 N2           6.8200     4.2350     6.4550 n          1 0S5      -0.047300
@<TRIPOS>BOND
     1     1     2 ar  
     2     1     3 ar  
     3     1    30 1   
     4     2     4 ar  
     5     2    31 1   
     6     3     5 ar  
     7     3    32 1   
     8     4     6 ar  
     9     4    33 1   
    10     5     6 ar  
    11     5    34 1   
    12     6     8 1   
    13     7    25 2   
    14     7    35 1   
    15     7    59 1   
    16     8    24 1   
    17     8    26 2   
    18     9    18 1   
    19     9    24 1   
    20     9    27 2   
    21    10    22 1   
    22    10    23 1   
    23    10    28 2   
    24    11    12 1   
    25    11    15 1   
    26    11    36 1   
    27    11    37 1   
    28    12    16 1   
    29    12    38 1   
    30    12    39 1   
    31    13    14 1   
    32    13    17 1   
    33    13    40 1   
    34    13    57 1   
    35    14    18 1   
    36    14    41 1   
    37    14    42 1   
    38    15    19 1   
    39    15    43 1   
    40    15    44 1   
    41    16    19 1   
    42    16    45 1   
    43    16    46 1   
    44    17    23 1   
    45    17    47 1   
    46    17    58 1   
    47    18    23 1   
    48    18    48 1   
    49    19    20 1   
    50    19    49 1   
    51    20    22 1   
    52    20    50 1   
    53    20    51 1   
    54    21    22 1   
    55    21    52 1   
    56    21    53 1   
    57    21    59 1   
    58    22    54 1   
    59    24    55 1   
    60    29    56 1   
    61    29    59 1   
@<TRIPOS>SUBSTRUCTURE
     1 0S5         1 TEMP              0 ****  ****    0 ROOT
