@<TRIPOS>MOLECULE
molecule
   59    61     1     0     0
SMALL
bcc


@<TRIPOS>ATOM
      1 C26          0.0000     0.0000     0.0000 ca         1 0S5      -0.104000
      2 C25          1.3830     0.0000     0.0000 ca         1 0S5      -0.137500
      3 C27         -0.6980     0.0040     1.1950 ca         1 0S5      -0.137500
      4 C24          2.0770     0.0000     1.1920 ca         1 0S5      -0.085000
      5 C28         -0.0180     0.0080     2.3950 ca         1 0S5      -0.085000
      6 C23          1.3780    -0.0020     2.4020 ca         1 0S5      -0.150600
      7 C29          6.1430     5.3010     6.9250 c          1 0S5       0.663900
      8 C21          2.1140     0.0030     3.6830 c          1 0S5       0.667700
      9 C18          4.1320    -0.0030     4.8560 c          1 0S5       0.651100
     10 C11          5.6130     1.6940     6.7010 c          1 0S5       0.691100
     11 C8           5.5790     4.5570    12.1980 c3         1 0S5      -0.084400
     12 C9           6.3650     3.2420    12.3460 c3         1 0S5      -0.084400
     13 C15          7.5770    -1.2640     5.5330 c3         1 0S5      -0.093400
     14 C16          6.1680    -1.4680     4.9160 c3         1 0S5      -0.088400
     15 C7           5.0330     4.5840    10.7550 c3         1 0S5      -0.078400
     16 C10          6.2680     2.5160    10.9880 c3         1 0S5      -0.078400
     17 C14          7.3540    -0.1030     6.5260 c3         1 0S5       0.099000
     18 C17          5.6400    -0.0130     4.8590 c3         1 0S5       0.042700
     19 C6           5.9860     3.6490     9.9700 c3         1 0S5      -0.090700
     20 C5           5.2970     3.0970     8.7220 c3         1 0S5      -0.067400
     21 C3           7.4030     3.2670     7.3870 c3         1 0S5       0.120000
     22 C4           6.3120     2.3160     7.8830 c3         1 0S5      -0.160700
     23 N13          6.1530     0.6230     6.0850 n          1 0S5      -0.487800
     24 N20          3.4620    -0.0070     3.6870 ns         1 0S5      -0.582500
     25 O30          5.6620     6.1020     6.1530 o          1 0S5      -0.584100
     26 O22          1.5030     0.0150     4.7340 o          1 0S5      -0.522100
     27 O19          3.5240     0.0100     5.9030 o          1 0S5      -0.493100
     28 O12          4.5640     2.1560     6.3040 o          1 0S5      -0.556100
     29 O1           6.9700     4.0520     5.0590 oh         1 0S5      -0.367100
     30 H1          -0.5390    -0.0020    -0.9400 ha         1 0S5       0.133000
     31 H2           1.9230    -0.0010    -0.9390 ha         1 0S5       0.135000
     32 H3          -1.7820     0.0080     1.1870 ha         1 0S5       0.135000
     33 H4           3.1600    -0.0040     1.1910 ha         1 0S5       0.140000
     34 H5          -0.5660     0.0090     3.3290 ha         1 0S5       0.140000
     35 H6           6.0990     5.4830     7.9920 h5         1 0S5       0.044200
     36 H7           4.7590     4.5790    12.9050 hc         1 0S5       0.042700
     37 H8           6.2390     5.4020    12.3600 hc         1 0S5       0.042700
     38 H9           5.9210     2.6330    13.1240 hc         1 0S5       0.042700
     39 H10          7.4010     3.4550    12.5790 hc         1 0S5       0.042700
     40 H11          8.2910    -0.9810     4.7690 hc         1 0S5       0.056700
     41 H12          5.5480    -2.0780     5.5630 hc         1 0S5       0.065200
     42 H13          6.2400    -1.8920     3.9220 hc         1 0S5       0.065200
     43 H14          4.0200     4.2000    10.7280 hc         1 0S5       0.047200
     44 H15          5.0750     5.5900    10.3540 hc         1 0S5       0.047200
     45 H16          7.2050     2.0240    10.7560 hc         1 0S5       0.047200
     46 H17          5.4510     1.8040    10.9980 hc         1 0S5       0.047200
     47 H18          7.2000    -0.4960     7.5230 h1         1 0S5       0.041700
     48 H19          6.0280     0.4930     3.9830 h1         1 0S5       0.062700
     49 H20          6.9020     4.1680     9.7130 hc         1 0S5       0.044700
     50 H21          4.8990     3.9170     8.1360 hc         1 0S5       0.070700
     51 H22          4.4900     2.4380     9.0170 hc         1 0S5       0.070700
     52 H23          7.8350     3.7920     8.2310 h1         1 0S5       0.060200
     53 H24          8.1750     2.6990     6.8820 h1         1 0S5       0.060200
     54 H25          6.7590     1.5370     8.4890 hc         1 0S5       0.069700
     55 H26          3.9640    -0.0030     2.8220 hn         1 0S5       0.317500
     56 H27          7.6030     4.6670     4.7270 ho         1 0S5       0.397000
     57 H28          7.8970    -2.1570     6.0570 hc         1 0S5       0.056700
     58 H29          8.2100     0.5610     6.5130 h1         1 0S5       0.041700
     59 N2           6.8200     4.2350     6.4550 n          1 0S5      -0.382300
@<TRIPOS>BOND
     1     3     1 ar
     2     3     5 ar
     3     1     2 ar
     4     5     6 ar
     5     2     4 ar
     6     6     4 ar
     7     6     8 1
     8    14    18 1
     9    14    13 1
    10    24     8 1
    11    24     9 1
    12    18     9 1
    13    18    23 1
    14    21    59 1
    15    21    22 1
    16     8    26 2
    17    28    10 2
    18    13    17 1
    19    59    29 1
    20    59     7 1
    21     9    27 2
    22    23    10 1
    23    23    17 1
    24    10    22 1
    25     7    25 2
    26    22    20 1
    27    20    19 1
    28    19    15 1
    29    19    16 1
    30    15    11 1
    31    16    12 1
    32    11    12 1
    33     1    30 1
    34     2    31 1
    35     3    32 1
    36     4    33 1
    37     5    34 1
    38     7    35 1
    39    11    36 1
    40    11    37 1
    41    12    38 1
    42    12    39 1
    43    13    40 1
    44    14    41 1
    45    14    42 1
    46    15    43 1
    47    15    44 1
    48    16    45 1
    49    16    46 1
    50    17    47 1
    51    18    48 1
    52    19    49 1
    53    20    50 1
    54    20    51 1
    55    21    52 1
    56    21    53 1
    57    22    54 1
    58    24    55 1
    59    29    56 1
    60    13    57 1
    61    17    58 1
@<TRIPOS>SUBSTRUCTURE
     1 0S5         1 TEMP              0 ****  ****    0 ROOT
