@<TRIPOS>MOLECULE
0S5
   61    63     1     0     0
SMALL
bcc


@<TRIPOS>ATOM
      1 C26          1.8750     1.0140     0.6800 ca         1 0S5      -0.032000
      2 C25          3.0320     0.3080     1.0170 ca         1 0S5      -0.124500
      3 C27          0.6950     0.8090     1.4030 ca         1 0S5      -0.124500
      4 C24          3.0140    -0.6040     2.0670 ca         1 0S5      -0.060500
      5 C28          0.6610    -0.1040     2.4510 ca         1 0S5      -0.060500
      6 C23          1.8220    -0.8240     2.7870 ca         1 0S5      -0.220600
      7 C29          5.3330    -7.2210     7.7260 c          1 0S5       0.544900
      8 C21          1.8870    -1.7940     3.8690 c          1 0S5       0.601700
      9 C18         -0.0400    -1.7310     5.5080 c          1 0S5       0.537100
     10 C11          2.0040    -3.9620     6.9340 c          1 0S5       0.681100
     11 C8           7.2800    -2.4610     8.8080 c3         1 0S5      -0.081400
     12 C9           7.4450    -1.8230     7.4340 c3         1 0S5      -0.081400
     13 C15          0.7270    -1.0650     8.8480 c3         1 0S5      -0.099400
     14 C16         -0.4570    -1.4690     7.9800 c3         1 0S5      -0.090400
     15 C7           6.0820    -3.3990     8.7250 c3         1 0S5      -0.080400
     16 C10          6.2760    -2.2820     6.5710 c3         1 0S5      -0.080400
     17 C14          1.9350    -1.8690     8.3440 c3         1 0S5       0.074000
     18 C17          0.1090    -2.4030     6.8810 c3         1 0S5       0.040700
     19 C6           5.2660    -2.9410     7.5160 c3         1 0S5      -0.080700
     20 C5           4.5050    -4.0550     6.8250 c3         1 0S5      -0.084400
     21 C3           3.1020    -6.0360     7.5960 c3         1 0S5       0.108800
     22 C4           3.2710    -4.5070     7.6030 c3         1 0S5      -0.135700
     23 N13          1.4840    -2.7210     7.2460 n          1 0S5      -0.444800
     24 N20          0.5740    -2.4290     4.3250 ny         1 0S5      -0.600600
     25 O30          6.3790    -6.7510     8.1110 o          1 0S5      -0.348100
     26 O22          2.8750    -2.2320     4.4490 o          1 0S5      -0.472100
     27 O19         -0.6910    -0.7280     5.2640 o          1 0S5      -0.401100
     28 O12          1.4450    -4.6420     6.0390 o          1 0S5      -0.652100
     29 O1           4.2970    -6.1730     9.6460 oh         1 0S5      -0.363300
     30 N2           4.0550    -6.8080     8.4760 nx         1 0S5      -0.404700
     31 H1           1.8920     1.7380    -0.1540 ha         1 0S5       0.177000
     32 H2           3.9660     0.4740     0.4520 ha         1 0S5       0.175500
     33 H3          -0.2140     1.3780     1.1420 ha         1 0S5       0.175500
     34 H4           3.9290    -1.1570     2.3390 ha         1 0S5       0.154000
     35 H5          -0.2750    -0.2160     3.0220 ha         1 0S5       0.154000
     36 H6           5.1120    -7.9370     6.9020 hx         1 0S5       0.156200
     37 H7           8.2010    -3.0210     9.1060 hc         1 0S5       0.065200
     38 H8           7.1030    -1.6740     9.5850 hc         1 0S5       0.065200
     39 H9           8.4160    -2.1280     6.9690 hc         1 0S5       0.065200
     40 H10          7.4560    -0.7080     7.5210 hc         1 0S5       0.065200
     41 H11          0.5270    -1.2890     9.9260 hc         1 0S5       0.090700
     42 H12         -0.9660    -0.5730     7.5430 hc         1 0S5       0.101200
     43 H13         -1.2190    -2.0360     8.5750 hc         1 0S5       0.101200
     44 H14          5.4750    -3.3660     9.6640 hc         1 0S5       0.039450
     45 H15          6.4440    -4.4500     8.5740 hc         1 0S5       0.039450
     46 H16          5.8060    -1.4240     6.0310 hc         1 0S5       0.039450
     47 H17          6.6250    -3.0160     5.8020 hc         1 0S5       0.039450
     48 H18          2.7310    -1.1770     7.9500 h1         1 0S5       0.073200
     49 H19         -0.5090    -3.3530     6.8070 h1         1 0S5       0.117700
     50 H20          4.5330    -2.1580     7.8570 hc         1 0S5       0.053700
     51 H21          5.1920    -4.9280     6.6650 hc         1 0S5       0.064200
     52 H22          4.1960    -3.6990     5.8020 hc         1 0S5       0.064200
     53 H23          2.0590    -6.2830     7.9580 hx         1 0S5       0.123700
     54 H24          3.2190    -6.4270     6.5440 hx         1 0S5       0.123700
     55 H25          3.3370    -4.1470     8.6690 hc         1 0S5       0.104700
     56 H26          0.7550    -3.4170     4.5730 hn         1 0S5       0.479800
     57 H27          5.0730    -5.5690     9.5330 ho         1 0S5       0.483000
     58 H28          0.9320     0.0320     8.7630 hc         1 0S5       0.090700
     59 H29          2.3700    -2.4840     9.1770 h1         1 0S5       0.073200
     60 H202        -0.0840    -2.3960     3.5360 hn         1 0S5       0.479800
     61 H211         3.5670    -7.6900     8.7610 hn         1 0S5       0.501800
@<TRIPOS>BOND
     1     1     2 ar  
     2     1     3 ar  
     3     1    31 1   
     4     2     4 ar  
     5     2    32 1   
     6     3     5 ar  
     7     3    33 1   
     8     4     6 ar  
     9     4    34 1   
    10     5     6 ar  
    11     5    35 1   
    12     6     8 1   
    13     7    25 2   
    14     7    30 1   
    15     7    36 1   
    16     8    24 1   
    17     8    26 2   
    18     9    18 1   
    19     9    24 1   
    20     9    27 2   
    21    10    22 1   
    22    10    23 1   
    23    10    28 2   
    24    11    12 1   
    25    11    15 1   
    26    11    37 1   
    27    11    38 1   
    28    12    16 1   
    29    12    39 1   
    30    12    40 1   
    31    13    14 1   
    32    13    17 1   
    33    13    41 1   
    34    13    58 1   
    35    14    18 1   
    36    14    42 1   
    37    14    43 1   
    38    15    19 1   
    39    15    44 1   
    40    15    45 1   
    41    16    19 1   
    42    16    46 1   
    43    16    47 1   
    44    17    23 1   
    45    17    48 1   
    46    17    59 1   
    47    18    23 1   
    48    18    49 1   
    49    19    20 1   
    50    19    50 1   
    51    20    22 1   
    52    20    51 1   
    53    20    52 1   
    54    21    22 1   
    55    21    30 1   
    56    21    53 1   
    57    21    54 1   
    58    22    55 1   
    59    24    56 1   
    60    24    60 1   
    61    29    30 1   
    62    29    57 1   
    63    30    61 1   
@<TRIPOS>SUBSTRUCTURE
     1 0S5         1 TEMP              0 ****  ****    0 ROOT
