@<TRIPOS>MOLECULE
0S6
   47    50     1     0     0
SMALL
bcc


@<TRIPOS>ATOM
      1 Cl1          0.0880    -0.3240    -0.3190 cl         1 0S6      -0.090400
      2 C15          1.7820    -0.2120    -0.2230 ca         1 0S6       0.026400
      3 C16          2.3740     0.3740     0.9000 ca         1 0S6      -0.131500
      4 C17          3.7630     0.4620     0.9790 ca         1 0S6      -0.091500
      5 C13          2.5700    -0.7040    -1.2680 ca         1 0S6      -0.131500
      6 C14          3.9580    -0.6100    -1.1870 ca         1 0S6      -0.091500
      7 C12          4.5580    -0.0350    -0.0600 ca         1 0S6      -0.132900
      8 C8           6.0370     0.0950     0.0190 ce         1 0S6       0.561500
      9 C5           6.6530    -0.4320     1.2470 cc         1 0S6      -0.206900
     10 C4           6.3050    -1.6670     1.8870 cc         1 0S6      -0.056300
     11 C7           5.3140    -2.6280     1.3780 c3         1 0S6      -0.041800
     12 C2           7.0380    -1.8670     3.0460 cd         1 0S6      -0.116400
     13 C6           6.9140    -3.0180     3.9460 c3         1 0S6      -0.025800
     14 S1           8.1240    -0.6300     3.3330 ss         1 0S6       0.054200
     15 C3           7.6790     0.2270     1.9400 cd         1 0S6      -0.017300
     16 N9           8.3000     1.3930     1.5210 na         1 0S6      -0.235800
     17 C11          8.8590     2.4500     2.2800 cc         1 0S6       0.379800
     18 C28          8.8370     2.5400     3.7560 c3         1 0S6      -0.124400
     19 N27          9.3840     3.3550     1.4000 nd         1 0S6      -0.338000
     20 N21          9.1920     2.9480     0.1610 nd         1 0S6      -0.333000
     21 C19          8.5390     1.7510     0.1710 cc         1 0S6       0.358800
     22 N10          6.6440     0.6790    -0.9630 n2         1 0S6      -0.577900
     23 C20          8.0780     0.8900    -0.9760 c3         1 0S6       0.116200
     24 C22          8.5130     1.5340    -2.3040 c3         1 0S6      -0.106400
     25 C23          8.2720     0.5900    -3.4390 c          1 0S6       0.639100
     26 O24          8.2680    -0.6440    -3.4360 o          1 0S6      -0.551000
     27 O25          8.0610     1.2340    -4.6270 os         1 0S6      -0.434900
     28 C26          7.8400     0.4130    -5.7730 c3         1 0S6       0.126700
     29 H1           1.7510     0.7700     1.7160 ha         1 0S6       0.150500
     30 H2           4.2330     0.9260     1.8580 ha         1 0S6       0.150000
     31 H3           2.1000    -1.1580    -2.1540 ha         1 0S6       0.150500
     32 H4           4.5820    -0.9830    -2.0140 ha         1 0S6       0.150000
     33 H6           5.1440    -2.4900     0.2810 hc         1 0S6       0.055367
     34 H7           5.6630    -3.6760     1.5600 hc         1 0S6       0.055367
     35 H8           4.3360    -2.4890     1.9070 hc         1 0S6       0.055367
     36 H9           7.5770    -2.9090     4.8410 hc         1 0S6       0.053700
     37 H10          5.8560    -3.1260     4.2990 hc         1 0S6       0.053700
     38 H11          7.1960    -3.9620     3.4100 hc         1 0S6       0.053700
     39 H12          9.0300     1.5400     4.2210 hc         1 0S6       0.066033
     40 H13          9.6230     3.2570     4.1050 hc         1 0S6       0.066033
     41 H14          7.8370     2.9110     4.0970 hc         1 0S6       0.066033
     42 H17          8.6140    -0.1100    -0.8930 h1         1 0S6       0.089700
     43 H18          9.6140     1.7520    -2.2660 hc         1 0S6       0.104200
     44 H19          7.9710     2.4990    -2.4850 hc         1 0S6       0.104200
     45 H20          8.7290    -0.2370    -5.9540 h1         1 0S6       0.050367
     46 H21          6.9310    -0.2170    -5.6200 h1         1 0S6       0.050367
     47 H22          7.6940     1.1490    -6.6010 h1         1 0S6       0.050367
@<TRIPOS>BOND
     1     1     2 1   
     2     2     3 ar  
     3     2     5 ar  
     4     3     4 ar  
     5     3    29 1   
     6     4     7 ar  
     7     4    30 1   
     8     5     6 ar  
     9     5    31 1   
    10     6     7 ar  
    11     6    32 1   
    12     7     8 1   
    13     8     9 1   
    14     8    22 2   
    15     9    10 1   
    16     9    15 2   
    17    10    11 1   
    18    10    12 2   
    19    11    33 1   
    20    11    34 1   
    21    11    35 1   
    22    12    13 1   
    23    12    14 1   
    24    13    36 1   
    25    13    37 1   
    26    13    38 1   
    27    14    15 1   
    28    15    16 1   
    29    16    17 1   
    30    16    21 1   
    31    17    18 1   
    32    17    19 2   
    33    18    39 1   
    34    18    40 1   
    35    18    41 1   
    36    19    20 1   
    37    20    21 2   
    38    21    23 1   
    39    22    23 1   
    40    23    24 1   
    41    23    42 1   
    42    24    25 1   
    43    24    43 1   
    44    24    44 1   
    45    25    26 2   
    46    25    27 1   
    47    27    28 1   
    48    28    45 1   
    49    28    46 1   
    50    28    47 1   
@<TRIPOS>SUBSTRUCTURE
     1 0S6         1 TEMP              0 ****  ****    0 ROOT
