@<TRIPOS>MOLECULE
0S6
   47    50     1     0     0
SMALL
bcc


@<TRIPOS>ATOM
      1 Cl1          0.0000     0.0000     0.0000 cl         1 0S6      -0.024400
      2 C15          1.7370     0.0000     0.0000 ca         1 0S6      -0.022600
      3 C16          2.4260     0.0000     1.2010 ca         1 0S6      -0.109000
      4 C17          3.8050    -0.0000     1.2070 ca         1 0S6      -0.063000
      5 C13          2.4260    -0.0050    -1.2010 ca         1 0S6      -0.109000
      6 C14          3.8060    -0.0060    -1.2060 ca         1 0S6      -0.063000
      7 C12          4.5050     0.0000     0.0000 ca         1 0S6      -0.147900
      8 C8           5.9870    -0.0000     0.0000 ce         1 0S6       0.491500
      9 C5           6.6570     0.7080     1.1090 cc         1 0S6      -0.152900
     10 C4           6.1640     1.9470     1.6840 cc         1 0S6      -0.090300
     11 C7           4.9330     2.6540     1.1790 c3         1 0S6       0.053200
     12 C2           6.8920     2.3970     2.6920 cd         1 0S6       0.020600
     13 C6           6.5970     3.6560     3.4660 c3         1 0S6       0.103200
     14 S1           8.2460     1.3290     3.0040 ss         1 0S6      -0.186800
     15 C3           7.8130     0.2810     1.7290 cd         1 0S6      -0.119300
     16 N9           8.5440    -0.8430     1.3350 na         1 0S6       0.327200
     17 C11          9.2520    -1.7090     2.0990 cc         1 0S6       0.165800
     18 C28          9.4080    -1.6680     3.5970 c3         1 0S6       0.004600
     19 N27          9.7750    -2.5890     1.2830 nd         1 0S6      -0.322000
     20 N21          9.4310    -2.3230     0.0700 nd         1 0S6      -0.288000
     21 C19          8.6720    -1.2660     0.0510 cc         1 0S6       0.121800
     22 N10          6.5750    -0.6250    -0.9690 n2         1 0S6      -0.471900
     23 C20          8.0280    -0.6130    -1.1440 c3         1 0S6       0.151200
     24 C22          8.5160     0.8330    -1.2740 c3         1 0S6      -0.119400
     25 C23          7.9580     1.4390    -2.5350 c          1 0S6       0.689100
     26 O24          7.2430     0.7840    -3.2570 o          1 0S6      -0.567000
     27 O25          8.2530     2.7080    -2.8570 os         1 0S6      -0.417900
     28 C26          7.6800     3.2270    -4.0860 c3         1 0S6       0.270700
     29 H1           1.8810    -0.0000     2.1370 ha         1 0S6       0.117500
     30 H2           4.3440     0.0020     2.1470 ha         1 0S6       0.124000
     31 H3           1.8820    -0.0090    -2.1370 ha         1 0S6       0.117500
     32 H4           4.3440    -0.0070    -2.1450 ha         1 0S6       0.124000
     33 H6           5.0940     3.7250     1.2100 hc         1 0S6       0.024033
     34 H7           4.7350     2.3490     0.1590 hc         1 0S6       0.024033
     35 H8           4.0870     2.3980     1.8040 hc         1 0S6       0.024033
     36 H9           6.6920     4.5130     2.8110 hc         1 0S6       0.017700
     37 H10          5.5880     3.6110     3.8590 hc         1 0S6       0.017700
     38 H11          7.2990     3.7480     4.2860 hc         1 0S6       0.017700
     39 H12          8.4340    -1.5660     4.0580 hc         1 0S6       0.021700
     40 H13         10.0290    -0.8240     3.8720 hc         1 0S6       0.021700
     41 H14          9.8750    -2.5850     3.9370 hc         1 0S6       0.021700
     42 H17          8.2860    -1.1670    -2.0380 h1         1 0S6       0.084700
     43 H18          9.5980     0.8470    -1.3150 hc         1 0S6       0.054200
     44 H19          8.1790     1.4050    -0.4180 hc         1 0S6       0.054200
     45 H20          8.0160     2.6260    -4.9230 h1         1 0S6       0.002367
     46 H21          6.5990     3.1890    -4.0250 h1         1 0S6       0.002367
     47 H22          7.9980     4.2530    -4.2280 h1         1 0S6       0.002367
@<TRIPOS>BOND
     1     1     2 1   
     2     2     3 ar  
     3     2     5 ar  
     4     3     4 ar  
     5     3    29 1   
     6     4     7 ar  
     7     4    30 1   
     8     5     6 ar  
     9     5    31 1   
    10     6     7 ar  
    11     6    32 1   
    12     7     8 1   
    13     8     9 1   
    14     8    22 2   
    15     9    10 1   
    16     9    15 2   
    17    10    11 1   
    18    10    12 2   
    19    11    33 1   
    20    11    34 1   
    21    11    35 1   
    22    12    13 1   
    23    12    14 1   
    24    13    36 1   
    25    13    37 1   
    26    13    38 1   
    27    14    15 1   
    28    15    16 1   
    29    16    17 1   
    30    16    21 1   
    31    17    18 1   
    32    17    19 2   
    33    18    39 1   
    34    18    40 1   
    35    18    41 1   
    36    19    20 1   
    37    20    21 2   
    38    21    23 1   
    39    22    23 1   
    40    23    24 1   
    41    23    42 1   
    42    24    25 1   
    43    24    43 1   
    44    24    44 1   
    45    25    26 2   
    46    25    27 1   
    47    27    28 1   
    48    28    45 1   
    49    28    46 1   
    50    28    47 1   
@<TRIPOS>SUBSTRUCTURE
     1 0S6         1 TEMP              0 ****  ****    0 ROOT
