@<TRIPOS>MOLECULE
molecule
   47    50     1     0     0
SMALL
bcc


@<TRIPOS>ATOM
      1 Cl1          0.0000     0.0000     0.0000 cl         1 0S6      -0.107400
      2 C15          1.7370     0.0000     0.0000 ca         1 0S6       0.041400
      3 C16          2.4260     0.0000     1.2010 ca         1 0S6      -0.134000
      4 C17          3.8050    -0.0000     1.2070 ca         1 0S6      -0.085500
      5 C13          2.4260    -0.0050    -1.2010 ca         1 0S6      -0.134000
      6 C14          3.8060    -0.0060    -1.2060 ca         1 0S6      -0.085500
      7 C12          4.5050     0.0000     0.0000 ca         1 0S6      -0.136900
      8 C8           5.9870    -0.0000     0.0000 ce         1 0S6       0.541500
      9 C5           6.6570     0.7080     1.1090 cc         1 0S6      -0.214900
     10 C4           6.1640     1.9470     1.6840 cc         1 0S6      -0.079300
     11 C7           4.9330     2.6540     1.1790 c3         1 0S6      -0.034800
     12 C2           6.8920     2.3970     2.6920 cd         1 0S6      -0.041400
     13 C6           6.5970     3.6560     3.4660 c3         1 0S6      -0.013800
     14 S1           8.2460     1.3290     3.0040 ss         1 0S6      -0.057800
     15 C3           7.8130     0.2810     1.7290 cd         1 0S6       0.017700
     16 N9           8.5440    -0.8430     1.3350 na         1 0S6      -0.216800
     17 C11          9.2520    -1.7090     2.0990 cc         1 0S6       0.370800
     18 C28          9.4080    -1.6680     3.5970 c3         1 0S6      -0.109400
     19 N27          9.7750    -2.5890     1.2830 nd         1 0S6      -0.343000
     20 N21          9.4310    -2.3230     0.0700 nd         1 0S6      -0.325000
     21 C19          8.6720    -1.2660     0.0510 cc         1 0S6       0.345800
     22 N10          6.5750    -0.6250    -0.9690 n2         1 0S6      -0.557900
     23 C20          8.0280    -0.6130    -1.1440 c3         1 0S6       0.134200
     24 C22          8.5160     0.8330    -1.2740 c3         1 0S6      -0.155400
     25 C23          7.9580     1.4390    -2.5350 c          1 0S6       0.629100
     26 O24          7.2430     0.7840    -3.2570 o          1 0S6      -0.532000
     27 O25          8.2530     2.7080    -2.8570 os         1 0S6      -0.430900
     28 C26          7.6800     3.2270    -4.0860 c3         1 0S6       0.139700
     29 H1           1.8810    -0.0000     2.1370 ha         1 0S6       0.148000
     30 H2           4.3440     0.0020     2.1470 ha         1 0S6       0.155000
     31 H3           1.8820    -0.0090    -2.1370 ha         1 0S6       0.148000
     32 H4           4.3440    -0.0070    -2.1450 ha         1 0S6       0.155000
     33 H6           5.0940     3.7250     1.2100 hc         1 0S6       0.054367
     34 H7           4.7350     2.3490     0.1590 hc         1 0S6       0.054367
     35 H8           4.0870     2.3980     1.8040 hc         1 0S6       0.054367
     36 H9           6.6920     4.5130     2.8110 hc         1 0S6       0.053033
     37 H10          5.5880     3.6110     3.8590 hc         1 0S6       0.053033
     38 H11          7.2990     3.7480     4.2860 hc         1 0S6       0.053033
     39 H12          8.4340    -1.5660     4.0580 hc         1 0S6       0.063033
     40 H13         10.0290    -0.8240     3.8720 hc         1 0S6       0.063033
     41 H14          9.8750    -2.5850     3.9370 hc         1 0S6       0.063033
     42 H17          8.2860    -1.1670    -2.0380 h1         1 0S6       0.131700
     43 H18          9.5980     0.8470    -1.3150 hc         1 0S6       0.087700
     44 H19          8.1790     1.4050    -0.4180 hc         1 0S6       0.087700
     45 H20          8.0160     2.6260    -4.9230 h1         1 0S6       0.050033
     46 H21          6.5990     3.1890    -4.0250 h1         1 0S6       0.050033
     47 H22          7.9980     4.2530    -4.2280 h1         1 0S6       0.050033
@<TRIPOS>BOND
     1     1     2 1
     2     5     2 ar
     3     5     6 ar
     4     2     3 ar
     5    28    27 1
     6     6     7 ar
     7     3     4 ar
     8    27    25 1
     9     7     4 ar
    10     7     8 1
    11    26    25 2
    12    25    24 1
    13    22     8 2
    14    22    23 1
    15     8     9 1
    16    24    23 1
    17    23    21 1
    18    11    10 1
    19     9    10 1
    20     9    15 2
    21    10    12 2
    22    21    20 2
    23    21    16 1
    24    20    19 1
    25    16    15 1
    26    16    17 1
    27    15    14 1
    28    19    17 2
    29    12    13 1
    30    12    14 1
    31    17    18 1
    32     3    29 1
    33     4    30 1
    34     5    31 1
    35     6    32 1
    36    11    33 1
    37    11    34 1
    38    11    35 1
    39    13    36 1
    40    13    37 1
    41    13    38 1
    42    18    39 1
    43    18    40 1
    44    18    41 1
    45    23    42 1
    46    24    43 1
    47    24    44 1
    48    28    45 1
    49    28    46 1
    50    28    47 1
@<TRIPOS>SUBSTRUCTURE
     1 0S6         1 TEMP              0 ****  ****    0 ROOT
