@<TRIPOS>MOLECULE
molecule
   39    41     1     0     0
SMALL
bcc


@<TRIPOS>ATOM
      1 C1           0.0000     0.0000     0.0000 c3         1 0S7      -0.109400
      2 C2           1.5080     0.0000     0.0000 cc         1 0S7       0.347600
      3 C3           2.3250     0.0000     1.1340 cd         1 0S7      -0.356300
      4 C4           3.6200    -0.0010     0.7150 cc         1 0S7       0.152300
      5 N5           4.7500     0.0030     1.5290 nu         1 0S7      -0.741300
      6 C6           4.6100     0.0040     2.9090 ca         1 0S7       0.793200
      7 N7           3.4020    -0.0010     3.4640 nb         1 0S7      -0.843000
      8 C8           3.2650    -0.0010     4.7820 ca         1 0S7       0.983900
      9 N9           1.9930    -0.0060     5.3280 nu         1 0S7      -0.893900
     10 C10          1.8200    -0.0060     6.7830 c3         1 0S7       0.247800
     11 C11          0.3280    -0.0120     7.1190 c3         1 0S7      -0.052100
     12 C12          0.1500    -0.0120     8.6150 ca         1 0S7      -0.212600
     13 C13          0.0780    -1.2070     9.3140 ca         1 0S7      -0.087000
     14 C14         -0.0860    -1.1590    10.6900 ca         1 0S7      -0.251300
     15 C15         -0.1710     0.0700    11.3160 ca         1 0S7       0.420200
     16 N16         -0.0990     1.1880    10.6190 nb         1 0S7      -0.686000
     17 C17          0.0630     1.1800     9.3100 ca         1 0S7       0.426200
     18 N18          4.3140     0.0030     5.5900 nb         1 0S7      -0.824000
     19 C19          5.5480     0.0070     5.1050 ca         1 0S7       0.560200
     20 C20          5.7360     0.0020     3.7370 ca         1 0S7      -0.392500
     21 Br1          7.4780     0.0070     2.9990 br         1 0S7      -0.092100
     22 N22          3.6100    -0.0010    -0.6430 na         1 0S7      -0.074600
     23 N24          2.2720    -0.0070    -1.0610 nd         1 0S7      -0.510800
     24 H1          -0.3610    -0.8690     0.5360 hc         1 0S7       0.049033
     25 H2          -0.3610    -0.0300    -1.0210 hc         1 0S7       0.049033
     26 H3          -0.3610     0.8990     0.4850 hc         1 0S7       0.049033
     27 H4           1.9880     0.0710     2.1610 ha         1 0S7       0.196000
     28 H5           5.6630     0.0050     1.1190 hn         1 0S7       0.467800
     29 H6           1.1910    -0.0120     4.7290 hn         1 0S7       0.457800
     30 H7           2.2880    -0.8890     7.2020 h1         1 0S7       0.058700
     31 H8           2.2820     0.8800     7.2010 h1         1 0S7       0.058700
     32 H9          -0.1400     0.8710     6.7000 hc         1 0S7       0.056200
     33 H10         -0.1330    -0.8980     6.7010 hc         1 0S7       0.056200
     34 H11          0.1470    -2.1560     8.7970 ha         1 0S7       0.140000
     35 H12         -0.1460    -2.0740    11.2670 ha         1 0S7       0.140000
     36 H13         -0.3020     0.1170    12.3900 h4         1 0S7       0.025100
     37 H14          0.1180     2.1190     8.7720 h4         1 0S7       0.025100
     38 H15          6.4000     0.0080     5.7740 h4         1 0S7       0.042100
     39 H16          4.4140    -0.0030    -1.2390 hn         1 0S7       0.323700
@<TRIPOS>BOND
     1    21    20 1   
     2    19    20 ar  
     3    19    18 ar  
     4    20     6 ar  
     5    18     8 ar  
     6     6     5 1   
     7     6     7 ar  
     8     5     4 1   
     9     8     7 ar  
    10     8     9 1   
    11     9    10 1   
    12     4    22 1   
    13     4     3 2   
    14    22    23 1   
    15     3     2 1   
    16    10    11 1   
    17    23     2 2   
    18     2     1 1   
    19    11    12 1   
    20    12    17 ar  
    21    12    13 ar  
    22    17    16 ar  
    23    13    14 ar  
    24    16    15 ar  
    25    14    15 ar  
    26     1    24 1   
    27     1    25 1   
    28     1    26 1   
    29     3    27 1   
    30     5    28 1   
    31     9    29 1   
    32    10    30 1   
    33    10    31 1   
    34    11    32 1   
    35    11    33 1   
    36    13    34 1   
    37    14    35 1   
    38    15    36 1   
    39    17    37 1   
    40    19    38 1   
    41    22    39 1   
@<TRIPOS>SUBSTRUCTURE
     1 0S7         1 TEMP              0 ****  ****    0 ROOT
