@<TRIPOS>MOLECULE
0S7
   39    41     1     0     0
SMALL
bcc


@<TRIPOS>ATOM
      1 C1           0.0000     0.0000     0.0000 c3         1 0S7      -0.002400
      2 C2           1.5080     0.0000     0.0000 cc         1 0S7       0.375600
      3 C3           2.3250     0.0000     1.1340 cc         1 0S7      -0.359300
      4 C4           3.6200    -0.0010     0.7150 cd         1 0S7      -0.167700
      5 N5           4.7500     0.0030     1.5290 nu         1 0S7      -0.253300
      6 C6           4.6100     0.0040     2.9090 ca         1 0S7       0.590200
      7 N7           3.4020    -0.0010     3.4640 nb         1 0S7      -0.737000
      8 C8           3.2650    -0.0010     4.7820 ca         1 0S7       0.760900
      9 N9           1.9930    -0.0060     5.3280 nu         1 0S7      -0.479900
     10 C10          1.8200    -0.0060     6.7830 c3         1 0S7       0.164800
     11 C11          0.3280    -0.0120     7.1190 c3         1 0S7       0.026900
     12 C12          0.1500    -0.0120     8.6150 ca         1 0S7      -0.212600
     13 C13          0.0780    -1.2070     9.3140 ca         1 0S7      -0.062000
     14 C14         -0.0860    -1.1590    10.6900 ca         1 0S7      -0.218300
     15 C15         -0.1710     0.0700    11.3160 ca         1 0S7       0.404200
     16 N16         -0.0990     1.1880    10.6190 nb         1 0S7      -0.579000
     17 C17          0.0630     1.1800     9.3100 ca         1 0S7       0.411200
     18 N18          4.3140     0.0030     5.5900 nb         1 0S7      -0.737000
     19 C19          5.5480     0.0070     5.1050 ca         1 0S7       0.555200
     20 C20          5.7360     0.0020     3.7370 ca         1 0S7      -0.358500
     21 Br1          7.4780     0.0070     2.9990 br         1 0S7      -0.104100
     22 N22          3.6100    -0.0010    -0.6430 na         1 0S7       0.408400
     23 N24          2.2720    -0.0070    -1.0610 nd         1 0S7      -0.659800
     24 H1          -0.3610    -0.8690     0.5360 hc         1 0S7       0.009033
     25 H2          -0.3610    -0.0300    -1.0210 hc         1 0S7       0.009033
     26 H3          -0.3610     0.8990     0.4850 hc         1 0S7       0.009033
     27 H4           1.9880     0.0710     2.1610 ha         1 0S7       0.185000
     28 H5           5.6630     0.0050     1.1190 hn         1 0S7       0.288800
     29 H6           1.1910    -0.0120     4.7290 hn         1 0S7       0.301800
     30 H7           2.2880    -0.8890     7.2020 h1         1 0S7       0.030700
     31 H8           2.2820     0.8800     7.2010 h1         1 0S7       0.030700
     32 H9          -0.1400     0.8710     6.7000 hc         1 0S7       0.023200
     33 H10         -0.1330    -0.8980     6.7010 hc         1 0S7       0.023200
     34 H11          0.1470    -2.1560     8.7970 ha         1 0S7       0.111000
     35 H12         -0.1460    -2.0740    11.2670 ha         1 0S7       0.114000
     36 H13         -0.3020     0.1170    12.3900 h4         1 0S7      -0.019900
     37 H14          0.1180     2.1190     8.7720 h4         1 0S7      -0.017900
     38 H15          6.4000     0.0080     5.7740 h4         1 0S7      -0.009900
     39 H16          4.4140    -0.0030    -1.2390 hn         1 0S7       0.145700
@<TRIPOS>BOND
     1     1     2 1   
     2     1    24 1   
     3     1    25 1   
     4     1    26 1   
     5     2     3 1   
     6     2    23 2   
     7     3     4 2   
     8     3    27 1   
     9     4     5 1   
    10     4    22 1   
    11     5     6 1   
    12     5    28 1   
    13     6     7 ar  
    14     6    20 ar  
    15     7     8 ar  
    16     8     9 1   
    17     8    18 ar  
    18     9    10 1   
    19     9    29 1   
    20    10    11 1   
    21    10    30 1   
    22    10    31 1   
    23    11    12 1   
    24    11    32 1   
    25    11    33 1   
    26    12    13 ar  
    27    12    17 ar  
    28    13    14 ar  
    29    13    34 1   
    30    14    15 ar  
    31    14    35 1   
    32    15    16 ar  
    33    15    36 1   
    34    16    17 ar  
    35    17    37 1   
    36    18    19 ar  
    37    19    20 ar  
    38    19    38 1   
    39    20    21 1   
    40    22    23 1   
    41    22    39 1   
@<TRIPOS>SUBSTRUCTURE
     1 0S7         1 TEMP              0 ****  ****    0 ROOT
