@<TRIPOS>MOLECULE
0S7
   39    41     1     0     0
SMALL
bcc


@<TRIPOS>ATOM
      1 C1           0.3330    -0.0730    -0.5940 c3         1 0S7      -0.122400
      2 C2           1.7870    -0.0110    -0.3550 cc         1 0S7       0.314600
      3 C3           2.4660    -0.6090     0.7750 cc         1 0S7      -0.254300
      4 C4           3.8250    -0.2820     0.5960 cd         1 0S7       0.089300
      5 N5           4.9400    -0.6210     1.3660 nu         1 0S7      -0.710300
      6 C6           5.0220    -0.3420     2.7340 ca         1 0S7       0.750200
      7 N7           3.8960     0.0350     3.4110 nb         1 0S7      -0.791000
      8 C8           4.0170     0.2170     4.7770 ca         1 0S7       0.920900
      9 N9           2.8700     0.5060     5.5120 nu         1 0S7      -0.843900
     10 C10          1.6440     0.9020     4.8640 c3         1 0S7       0.214800
     11 C11          0.5370     1.2390     5.8710 c3         1 0S7      -0.046100
     12 C12         -0.7030     1.6270     5.1550 ca         1 0S7      -0.200600
     13 C13         -1.7860     0.7480     5.0380 ca         1 0S7      -0.086000
     14 C14         -2.9340     1.1710     4.3670 ca         1 0S7      -0.244300
     15 C15         -2.9590     2.4710     3.8310 ca         1 0S7       0.395200
     16 N16         -1.9290     3.3330     3.9310 nb         1 0S7      -0.660000
     17 C17         -0.8290     2.9120     4.5800 ca         1 0S7       0.400200
     18 N18          5.2100     0.0860     5.5000 nb         1 0S7      -0.774000
     19 C19          6.2830    -0.2740     4.7950 ca         1 0S7       0.522200
     20 C20          6.2790    -0.5090     3.4050 ca         1 0S7      -0.399500
     21 Br1          7.8450    -1.0020     2.5410 br         1 0S7      -0.067100
     22 N22          3.8800     0.5290    -0.5780 na         1 0S7      -0.035600
     23 N24          2.6880     0.6240    -1.1610 nd         1 0S7      -0.511800
     24 H1           0.1040    -0.2570    -1.6730 hc         1 0S7       0.050367
     25 H2          -0.1460     0.8930    -0.2930 hc         1 0S7       0.050367
     26 H3          -0.1120    -0.8980     0.0150 hc         1 0S7       0.050367
     27 H4           2.0210    -1.1680     1.5890 ha         1 0S7       0.177000
     28 H5           5.8140    -0.7020     0.8880 hn         1 0S7       0.449800
     29 H6           3.0060     0.8080     6.4520 hn         1 0S7       0.443800
     30 H7           1.8170     1.7990     4.2000 h1         1 0S7       0.061700
     31 H8           1.2980     0.0540     4.2050 h1         1 0S7       0.061700
     32 H9           0.3380     0.3520     6.5310 hc         1 0S7       0.057200
     33 H10          0.8650     2.0850     6.5340 hc         1 0S7       0.057200
     34 H11         -1.7330    -0.2620     5.4720 ha         1 0S7       0.140000
     35 H12         -3.8020     0.5070     4.2580 ha         1 0S7       0.145000
     36 H13         -3.8480     2.8460     3.2930 h4         1 0S7       0.024100
     37 H14          0.0010     3.6390     4.6460 h4         1 0S7       0.023100
     38 H15          7.2190    -0.3770     5.3800 h4         1 0S7       0.039100
     39 H16          4.6950     0.7290    -1.1100 hn         1 0S7       0.308700
@<TRIPOS>BOND
     1     1     2 1   
     2     1    24 1   
     3     1    25 1   
     4     1    26 1   
     5     2     3 1   
     6     2    23 2   
     7     3     4 2   
     8     3    27 1   
     9     4     5 1   
    10     4    22 1   
    11     5     6 1   
    12     5    28 1   
    13     6     7 ar  
    14     6    20 ar  
    15     7     8 ar  
    16     8     9 1   
    17     8    18 ar  
    18     9    10 1   
    19     9    29 1   
    20    10    11 1   
    21    10    30 1   
    22    10    31 1   
    23    11    12 1   
    24    11    32 1   
    25    11    33 1   
    26    12    13 ar  
    27    12    17 ar  
    28    13    14 ar  
    29    13    34 1   
    30    14    15 ar  
    31    14    35 1   
    32    15    16 ar  
    33    15    36 1   
    34    16    17 ar  
    35    17    37 1   
    36    18    19 ar  
    37    19    20 ar  
    38    19    38 1   
    39    20    21 1   
    40    22    23 1   
    41    22    39 1   
@<TRIPOS>SUBSTRUCTURE
     1 0S7         1 TEMP              0 ****  ****    0 ROOT
