@<TRIPOS>MOLECULE
0SB
   49    52     1     0     0
SMALL
bcc


@<TRIPOS>ATOM
      1 C1           0.0460     0.2470    -0.2770 ca         1 0SB       0.130600
      2 C2           1.4620     0.2190    -0.3010 ca         1 0SB      -0.112000
      3 C3          -0.6040     0.1260     0.9690 ca         1 0SB      -0.168000
      4 C4           2.1890     0.0720     0.8810 cp         1 0SB      -0.135500
      5 C5           0.1350    -0.0190     2.1410 ca         1 0SB      -0.112000
      6 C6           1.5240    -0.0530     2.1080 ca         1 0SB      -0.140000
      7 C7           3.6670     0.0540     0.8580 cp         1 0SB       0.503800
      8 C11          5.7630     0.6770     1.8820 ca         1 0SB      -0.065000
      9 C12          6.4290     0.0080     0.8620 ca         1 0SB      -0.283300
     10 C15          4.5600    -2.6170    -2.2830 ca         1 0SB      -0.170300
     11 C17          3.9830    -3.0350    -3.4800 ca         1 0SB      -0.122300
     12 C18          5.6650    -1.8130    -4.6680 ca         1 0SB       0.416200
     13 C19          4.5300    -2.6430    -4.7020 ca         1 0SB      -0.223300
     14 C27         -2.6710     1.2510    -2.7160 c3         1 0SB       0.159800
     15 F23          1.5610    -3.2020    -3.3430 f          1 0SB      -0.233633
     16 C20          2.7340    -3.9120    -3.4480 c3         1 0SB       0.687200
     17 F21          2.5550    -4.6900    -4.5660 f          1 0SB      -0.233633
     18 F22          2.6870    -4.8020    -2.4050 f          1 0SB      -0.233633
     19 N16          6.2380    -1.3660    -3.5420 nb         1 0SB      -0.692000
     20 C14          5.6970    -1.7610    -2.3450 ca         1 0SB       0.618200
     21 C10          5.6540    -0.6280    -0.1550 ca         1 0SB       0.626200
     22 N8           4.2890    -0.5930    -0.1560 nb         1 0SB      -0.708000
     23 C9           4.3700     0.7100     1.8930 ca         1 0SB      -0.267300
     24 N24         -0.6540     0.4740    -1.4900 nh         1 0SB      -0.637000
     25 C26         -0.4130    -0.5110    -2.5370 c3         1 0SB       0.183300
     26 C28         -1.0270    -0.0850    -3.8860 c3         1 0SB       0.159800
     27 N29         -2.4210     0.2970    -3.7770 n7         1 0SB      -0.820200
     28 C25         -2.0610     0.8190    -1.3650 c3         1 0SB       0.183300
     29 H1           1.9980     0.3230    -1.2580 ha         1 0SB       0.153000
     30 H2          -1.7020     0.1400     1.0370 ha         1 0SB       0.135000
     31 H3          -0.3910    -0.1170     3.1030 ha         1 0SB       0.132000
     32 H4           2.0960    -0.1880     3.0380 ha         1 0SB       0.135000
     33 H5           6.3360     1.1790     2.6760 ha         1 0SB       0.141000
     34 H6           7.5260    -0.0310     0.8440 ha         1 0SB       0.147000
     35 H7           7.2780    -1.0000    -1.2950 hn         1 0SB       0.428800
     36 H8           4.1410    -2.9430    -1.3180 ha         1 0SB       0.183000
     37 H9           6.1430    -1.4750    -5.6060 h4         1 0SB       0.032100
     38 H10          4.0970    -2.9710    -5.6560 ha         1 0SB       0.163000
     39 H11         -3.7870     1.3240    -2.5800 h1         1 0SB       0.036200
     40 H12         -2.2850     2.2820    -2.9650 h1         1 0SB       0.036200
     41 H13          3.8220     1.2420     2.6830 ha         1 0SB       0.151000
     42 H14          0.6970    -0.6310    -2.6810 h1         1 0SB       0.046700
     43 H15         -0.8330    -1.5200    -2.2520 h1         1 0SB       0.046700
     44 H16         -0.3900     0.7410    -4.3210 h1         1 0SB       0.036200
     45 H17         -0.9690    -0.9680    -4.5830 h1         1 0SB       0.036200
     46 H18         -2.7460     0.6640    -4.6520 hn         1 0SB       0.363800
     47 H20         -2.1510     1.6850    -0.6510 h1         1 0SB       0.046700
     48 H21         -2.6680    -0.0410    -0.9570 h1         1 0SB       0.046700
     49 N13          6.3540    -1.3660    -1.1460 nu         1 0SB      -0.807600
@<TRIPOS>BOND
     1     1     2 ar  
     2     1     3 ar  
     3     1    24 1   
     4     2     4 ar  
     5     2    29 1   
     6     3     5 ar  
     7     3    30 1   
     8     4     6 ar  
     9     4     7 1   
    10     5     6 ar  
    11     5    31 1   
    12     6    32 1   
    13     7    22 ar  
    14     7    23 ar  
    15     8     9 ar  
    16     8    23 ar  
    17     8    33 1   
    18     9    21 ar  
    19     9    34 1   
    20    10    11 ar  
    21    10    20 ar  
    22    10    36 1   
    23    11    13 ar  
    24    11    16 1   
    25    12    13 ar  
    26    12    19 ar  
    27    12    37 1   
    28    13    38 1   
    29    14    27 1   
    30    14    28 1   
    31    14    39 1   
    32    14    40 1   
    33    15    16 1   
    34    16    17 1   
    35    16    18 1   
    36    19    20 ar  
    37    20    49 1   
    38    21    22 ar  
    39    21    49 1   
    40    23    41 1   
    41    24    25 1   
    42    24    28 1   
    43    25    26 1   
    44    25    42 1   
    45    25    43 1   
    46    26    27 1   
    47    26    44 1   
    48    26    45 1   
    49    27    46 1   
    50    28    47 1   
    51    28    48 1   
    52    35    49 1   
@<TRIPOS>SUBSTRUCTURE
     1 0SB         1 TEMP              0 ****  ****    0 ROOT
