@<TRIPOS>MOLECULE
0SB
   49    52     1     0     0
SMALL
bcc


@<TRIPOS>ATOM
      1 C1           0.0000     0.0000     0.0000 ca         1 0SB       0.013600
      2 C2           1.3860     0.0000     0.0000 ca         1 0SB      -0.095000
      3 C3          -0.6960     0.0070     1.2040 ca         1 0SB      -0.158000
      4 C4           2.0780     0.0000     1.2100 cp         1 0SB      -0.132500
      5 C5          -0.0080     0.0070     2.4020 ca         1 0SB      -0.080000
      6 C6           1.3720     0.0000     2.4120 ca         1 0SB      -0.120000
      7 C7           3.5620    -0.0000     1.2180 cp         1 0SB       0.471800
      8 C11          5.6290    -0.0010     2.4280 ca         1 0SB      -0.031000
      9 C12          6.2900    -0.0020     1.2110 ca         1 0SB      -0.279300
     10 C15          6.1410     0.2270    -3.5890 ca         1 0SB      -0.227300
     11 C17          5.4020     0.3310    -4.7540 ca         1 0SB      -0.142300
     12 C18          3.4210     0.2080    -3.4230 ca         1 0SB       0.426200
     13 C19          4.0160     0.3220    -4.6630 ca         1 0SB      -0.215300
     14 C27         -1.0270     1.0600    -3.3930 c3         1 0SB       0.144300
     15 F23          6.3000    -0.8220    -6.6240 f          1 0SB      -0.205967
     16 C20          6.0860     0.4540    -6.0910 c3         1 0SB       0.640200
     17 F21          5.2790     1.1940    -6.9610 f          1 0SB      -0.205967
     18 F22          7.3150     1.1030    -5.9290 f          1 0SB      -0.205967
     19 N16          4.1500     0.1140    -2.3280 nb         1 0SB      -0.548000
     20 C14          5.4730     0.1160    -2.3730 ca         1 0SB       0.482200
     21 C10          5.5470     0.0040     0.0330 ca         1 0SB       0.475200
     22 N8           4.2250     0.0040     0.0680 nb         1 0SB      -0.562000
     23 C9           4.2440    -0.0010     2.4300 ca         1 0SB      -0.256300
     24 N24         -0.6990     0.0000    -1.2110 nh         1 0SB      -0.364000
     25 C26         -2.1500     0.0000    -0.9810 c3         1 0SB       0.133800
     26 C28         -2.8770    -0.0800    -2.3260 c3         1 0SB       0.144300
     27 N29         -2.4780     1.0610    -3.1640 n7         1 0SB      -0.583200
     28 C25         -0.3000     1.1400    -2.0470 c3         1 0SB       0.133800
     29 H1           1.9300    -0.0030    -0.9370 ha         1 0SB       0.147000
     30 H2          -1.7790     0.0090     1.2020 ha         1 0SB       0.121000
     31 H3          -0.5540     0.0090     3.3380 ha         1 0SB       0.101000
     32 H4           1.9070     0.0000     3.3540 ha         1 0SB       0.109000
     33 H5           6.1840    -0.0040     3.3580 ha         1 0SB       0.106000
     34 H6           7.3730    -0.0020     1.1750 ha         1 0SB       0.114000
     35 H7           7.1970    -0.1180    -1.2300 hn         1 0SB       0.291800
     36 H8           7.2240     0.2310    -3.6230 ha         1 0SB       0.128000
     37 H9           2.3400     0.2020    -3.3480 h4         1 0SB      -0.012900
     38 H10          3.4090     0.4000    -5.5570 ha         1 0SB       0.127000
     39 H11         -0.7430     0.1470    -3.9020 h1         1 0SB       0.011450
     40 H12         -0.7570     1.9160    -3.9990 h1         1 0SB       0.011450
     41 H13          3.6980    -0.0000     3.3660 ha         1 0SB       0.125000
     42 H14         -2.4180    -0.8570    -0.3750 h1         1 0SB       0.025700
     43 H15         -2.4340     0.9130    -0.4720 h1         1 0SB       0.025700
     44 H16         -2.6110    -1.0040    -2.8250 h1         1 0SB       0.011450
     45 H17         -3.9470    -0.0480    -2.1590 h1         1 0SB       0.011450
     46 H18         -2.9550     1.0120    -4.0430 hn         1 0SB       0.253800
     47 H20         -0.5670     2.0640    -1.5490 h1         1 0SB       0.025700
     48 H21          0.7700     1.1080    -2.2130 h1         1 0SB       0.025700
     49 N13          6.2040     0.0030    -1.1940 nu         1 0SB      -0.409600
@<TRIPOS>BOND
     1     1     2 ar  
     2     1     3 ar  
     3     1    24 1   
     4     2     4 ar  
     5     2    29 1   
     6     3     5 ar  
     7     3    30 1   
     8     4     6 ar  
     9     4     7 1   
    10     5     6 ar  
    11     5    31 1   
    12     6    32 1   
    13     7    22 ar  
    14     7    23 ar  
    15     8     9 ar  
    16     8    23 ar  
    17     8    33 1   
    18     9    21 ar  
    19     9    34 1   
    20    10    11 ar  
    21    10    20 ar  
    22    10    36 1   
    23    11    13 ar  
    24    11    16 1   
    25    12    13 ar  
    26    12    19 ar  
    27    12    37 1   
    28    13    38 1   
    29    14    27 1   
    30    14    28 1   
    31    14    39 1   
    32    14    40 1   
    33    15    16 1   
    34    16    17 1   
    35    16    18 1   
    36    19    20 ar  
    37    20    49 1   
    38    21    22 ar  
    39    21    49 1   
    40    23    41 1   
    41    24    25 1   
    42    24    28 1   
    43    25    26 1   
    44    25    42 1   
    45    25    43 1   
    46    26    27 1   
    47    26    44 1   
    48    26    45 1   
    49    27    46 1   
    50    28    47 1   
    51    28    48 1   
    52    35    49 1   
@<TRIPOS>SUBSTRUCTURE
     1 0SB         1 TEMP              0 ****  ****    0 ROOT
