@<TRIPOS>MOLECULE
molecule
   49    52     1     0     0
SMALL
bcc


@<TRIPOS>ATOM
      1 C1           0.0000     0.0000     0.0000 ca         1 0SB       0.091600
      2 C2           1.3860     0.0000     0.0000 ca         1 0SB      -0.106000
      3 C3          -0.6960     0.0070     1.2040 ca         1 0SB      -0.171000
      4 C4           2.0780     0.0000     1.2100 cp         1 0SB      -0.127500
      5 C5          -0.0080     0.0070     2.4020 ca         1 0SB      -0.113000
      6 C6           1.3720     0.0000     2.4120 ca         1 0SB      -0.138000
      7 C7           3.5620    -0.0000     1.2180 cp         1 0SB       0.518800
      8 C11          5.6290    -0.0010     2.4280 ca         1 0SB      -0.062000
      9 C12          6.2900    -0.0020     1.2110 ca         1 0SB      -0.305300
     10 C15          6.1410     0.2270    -3.5890 ca         1 0SB      -0.263300
     11 C17          5.4020     0.3310    -4.7540 ca         1 0SB      -0.111300
     12 C18          3.4210     0.2080    -3.4230 ca         1 0SB       0.450200
     13 C19          4.0160     0.3220    -4.6630 ca         1 0SB      -0.258300
     14 C27         -1.0270     1.0600    -3.3930 c3         1 0SB       0.153800
     15 F23          6.3000    -0.8220    -6.6240 f          1 0SB      -0.220633
     16 C20          6.0860     0.4540    -6.0910 c3         1 0SB       0.674200
     17 F21          5.2790     1.1940    -6.9610 f          1 0SB      -0.220633
     18 F22          7.3150     1.1030    -5.9290 f          1 0SB      -0.220633
     19 N16          4.1500     0.1140    -2.3280 nb         1 0SB      -0.666000
     20 C14          5.4730     0.1160    -2.3730 ca         1 0SB       0.685200
     21 C10          5.5470     0.0040     0.0330 ca         1 0SB       0.679200
     22 N8           4.2250     0.0040     0.0680 nb         1 0SB      -0.684000
     23 C9           4.2440    -0.0010     2.4300 ca         1 0SB      -0.281300
     24 N24         -0.6990     0.0000    -1.2110 nh         1 0SB      -0.599000
     25 C26         -2.1500     0.0000    -0.9810 c3         1 0SB       0.164800
     26 C28         -2.8770    -0.0800    -2.3260 c3         1 0SB       0.153800
     27 N29         -2.4780     1.0610    -3.1640 n7         1 0SB      -0.820200
     28 C25         -0.3000     1.1400    -2.0470 c3         1 0SB       0.164800
     29 H1           1.9300    -0.0030    -0.9370 ha         1 0SB       0.171000
     30 H2          -1.7790     0.0090     1.2020 ha         1 0SB       0.136000
     31 H3          -0.5540     0.0090     3.3380 ha         1 0SB       0.130000
     32 H4           1.9070     0.0000     3.3540 ha         1 0SB       0.130000
     33 H5           6.1840    -0.0040     3.3580 ha         1 0SB       0.139000
     34 H6           7.3730    -0.0020     1.1750 ha         1 0SB       0.133000
     35 H7           7.1970    -0.1180    -1.2300 hn         1 0SB       0.465800
     36 H8           7.2240     0.2310    -3.6230 ha         1 0SB       0.150000
     37 H9           2.3400     0.2020    -3.3480 h4         1 0SB       0.032100
     38 H10          3.4090     0.4000    -5.5570 ha         1 0SB       0.152000
     39 H11         -0.7430     0.1470    -3.9020 h1         1 0SB       0.039700
     40 H12         -0.7570     1.9160    -3.9990 h1         1 0SB       0.039700
     41 H13          3.6980    -0.0000     3.3660 ha         1 0SB       0.142000
     42 H14         -2.4180    -0.8570    -0.3750 h1         1 0SB       0.050700
     43 H15         -2.4340     0.9130    -0.4720 h1         1 0SB       0.050700
     44 H16         -2.6110    -1.0040    -2.8250 h1         1 0SB       0.039700
     45 H17         -3.9470    -0.0480    -2.1590 h1         1 0SB       0.039700
     46 H18         -2.9550     1.0120    -4.0430 hn         1 0SB       0.355800
     47 H20         -0.5670     2.0640    -1.5490 h1         1 0SB       0.050700
     48 H21          0.7700     1.1080    -2.2130 h1         1 0SB       0.050700
     49 N13          6.2040     0.0030    -1.1940 nu         1 0SB      -0.867600
@<TRIPOS>BOND
     1     5     3 ar  
     2     5     6 ar  
     3     3     1 ar  
     4    28    24 1   
     5    28    14 1   
     6     6     4 ar  
     7    18    16 1   
     8     1    24 1   
     9     1     2 ar  
    10    17    16 1   
    11    24    25 1   
    12    25    26 1   
    13    14    27 1   
    14     4     2 ar  
    15     4     7 1   
    16    16    15 1   
    17    16    11 1   
    18    27    26 1   
    19     7    23 ar  
    20     7    22 ar  
    21    11    10 ar  
    22    11    13 ar  
    23    23     8 ar  
    24    10    20 ar  
    25    22    21 ar  
    26    13    12 ar  
    27     8     9 ar  
    28    21     9 ar  
    29    21    49 1   
    30    20    49 1   
    31    20    19 ar  
    32    12    19 ar  
    33     2    29 1   
    34     3    30 1   
    35     5    31 1   
    36     6    32 1   
    37     8    33 1   
    38     9    34 1   
    39    49    35 1   
    40    10    36 1   
    41    12    37 1   
    42    13    38 1   
    43    14    39 1   
    44    14    40 1   
    45    23    41 1   
    46    25    42 1   
    47    25    43 1   
    48    26    44 1   
    49    26    45 1   
    50    27    46 1   
    51    28    47 1   
    52    28    48 1   
@<TRIPOS>SUBSTRUCTURE
     1 0SB         1 TEMP              0 ****  ****    0 ROOT
