@<TRIPOS>MOLECULE
0SC
   70    75     1     0     0
SMALL
bcc


@<TRIPOS>ATOM
      1 F            0.2710     1.1130    -0.1980 f          1 0SC      -0.132900
      2 C24          1.5420     0.6500    -0.1230 ca         1 0SC       0.136900
      3 C23          2.2380     0.8160     1.1050 ca         1 0SC      -0.157000
      4 C22          3.5410     0.3840     1.2580 ca         1 0SC      -0.107000
      5 C21          4.1690    -0.2230     0.1600 ca         1 0SC      -0.069200
      6 N5           5.4570    -0.7470     0.0210 na         1 0SC      -0.191400
      7 C20          5.5920    -1.2400    -1.2790 cc         1 0SC      -0.102100
      8 C19          4.4110    -1.0460    -1.9920 cd         1 0SC      -0.177200
      9 C18          3.4780    -0.3960    -1.1000 ca         1 0SC      -0.041800
     10 C17          2.1550     0.0400    -1.2280 cp         1 0SC      -0.123500
     11 C16          1.4190    -0.1530    -2.5060 cp         1 0SC       0.734500
     12 N4           0.2680    -0.8430    -2.4700 nb         1 0SC      -0.676000
     13 C13         -0.3900    -1.0040    -3.6680 ca         1 0SC       0.319300
     14 C12         -1.6200    -1.7420    -3.7200 ca         1 0SC      -0.149300
     15 C11         -2.2450    -1.9180    -4.9250 ca         1 0SC      -0.202300
     16 N3           2.0030     0.4140    -3.6310 nb         1 0SC      -0.744000
     17 C15          1.3860     0.2680    -4.8160 ca         1 0SC       0.621900
     18 N6           2.0010     0.7330    -6.0110 nh         1 0SC      -0.718300
     19 C28          1.3080     1.8230    -6.6910 c3         1 0SC       0.149300
     20 C27          1.9290     2.1020    -8.0670 c3         1 0SC       0.123900
     21 O1           3.3280     2.3440    -7.9740 os         1 0SC      -0.416600
     22 C26          4.0160     1.2740    -7.3370 c3         1 0SC       0.123900
     23 C25          3.4410     0.9750    -5.9460 c3         1 0SC       0.149300
     24 C14          0.1090    -0.4670    -4.9060 ca         1 0SC       0.174000
     25 N2          -0.5370    -0.6460    -6.1010 nb         1 0SC      -0.636000
     26 C10         -1.6650    -1.3530    -6.1080 ca         1 0SC       0.409600
     27 C9          -2.3630    -1.6190    -7.4310 c3         1 0SC       0.115500
     28 N1          -3.7390    -1.1380    -7.4380 n3         1 0SC      -0.729600
     29 C6          -4.4910    -1.6900    -8.5580 c3         1 0SC       0.169800
     30 C5          -5.9390    -1.2080    -8.6090 c3         1 0SC      -0.074900
     31 C7          -3.8220     0.3150    -7.3700 c3         1 0SC       0.169800
     32 C8          -5.2550     0.8400    -7.3900 c3         1 0SC      -0.074900
     33 C4          -6.0220     0.3100    -8.5910 c3         1 0SC      -0.045700
     34 C2          -7.4870     0.7910    -8.5800 c3         1 0SC       0.151800
     35 O2          -8.0820     0.2620    -7.3940 oh         1 0SC      -0.595800
     36 C3          -7.5560     2.3160    -8.5540 c3         1 0SC      -0.125600
     37 C1          -8.2360     0.2720    -9.8050 c3         1 0SC      -0.125600
     38 H1           1.7100     1.3000     1.9410 ha         1 0SC       0.149000
     39 H2           4.0690     0.5140     2.2130 ha         1 0SC       0.138000
     40 H3           6.1440    -0.7640     0.7240 hn         1 0SC       0.299700
     41 H4           6.5290    -1.6970    -1.6030 h4         1 0SC       0.166000
     42 H5           4.2200    -1.3160    -3.0260 ha         1 0SC       0.165000
     43 H6          -2.0380    -2.1540    -2.7870 ha         1 0SC       0.162000
     44 H7          -3.1920    -2.4720    -5.0100 ha         1 0SC       0.163000
     45 H8           1.3630     2.7690    -6.0770 h1         1 0SC       0.059450
     46 H9           0.2270     1.5620    -6.8380 h1         1 0SC       0.059450
     47 H10          1.7400     1.2480    -8.7690 h1         1 0SC       0.056200
     48 H11          1.5070     3.0520    -8.4880 h1         1 0SC       0.056200
     49 H12          5.0720     1.6370    -7.2410 h1         1 0SC       0.056200
     50 H13          3.9780     0.3620    -7.9900 h1         1 0SC       0.056200
     51 H14          3.9410     0.0530    -5.5410 h1         1 0SC       0.059450
     52 H15          3.6870     1.8400    -5.2650 h1         1 0SC       0.059450
     53 H16         -1.7630    -1.1840    -8.2840 h1         1 0SC       0.053200
     54 H17         -2.3840    -2.7400    -7.5640 h1         1 0SC       0.053200
     55 H19         -4.4920    -2.8110    -8.4470 h1         1 0SC       0.030950
     56 H20         -3.9960    -1.4460    -9.5460 h1         1 0SC       0.030950
     57 H21         -6.3990    -1.6100    -9.5480 hc         1 0SC       0.057450
     58 H22         -6.5140    -1.6150    -7.7370 hc         1 0SC       0.057450
     59 H23         -3.2520     0.7980    -8.2190 h1         1 0SC       0.030950
     60 H24         -3.3330     0.6330    -6.4070 h1         1 0SC       0.030950
     61 H25         -5.2080     1.9590    -7.4230 hc         1 0SC       0.057450
     62 H26         -5.7930     0.5420    -6.4520 hc         1 0SC       0.057450
     63 H27         -5.5530     0.7140    -9.5320 hc         1 0SC       0.044700
     64 H28         -8.9950     0.5730    -7.3830 ho         1 0SC       0.398000
     65 H29         -6.9020     2.7440    -9.3480 hc         1 0SC       0.043367
     66 H30         -8.6050     2.6590    -8.7290 hc         1 0SC       0.043367
     67 H31         -7.2250     2.6980    -7.5590 hc         1 0SC       0.043367
     68 H32         -8.3910    -0.8300    -9.7230 hc         1 0SC       0.043367
     69 H33         -9.2380     0.7610    -9.8810 hc         1 0SC       0.043367
     70 H34         -7.6580     0.4930   -10.7320 hc         1 0SC       0.043367
@<TRIPOS>BOND
     1     1     2 1   
     2     2     3 ar  
     3     2    10 ar  
     4     3     4 ar  
     5     3    38 1   
     6     4     5 ar  
     7     4    39 1   
     8     5     6 1   
     9     5     9 ar  
    10     6     7 1   
    11     6    40 1   
    12     7     8 2   
    13     7    41 1   
    14     8     9 1   
    15     8    42 1   
    16     9    10 ar  
    17    10    11 1   
    18    11    12 ar  
    19    11    16 ar  
    20    12    13 ar  
    21    13    14 ar  
    22    13    24 ar  
    23    14    15 ar  
    24    14    43 1   
    25    15    26 ar  
    26    15    44 1   
    27    16    17 ar  
    28    17    18 1   
    29    17    24 ar  
    30    18    19 1   
    31    18    23 1   
    32    19    20 1   
    33    19    45 1   
    34    19    46 1   
    35    20    21 1   
    36    20    47 1   
    37    20    48 1   
    38    21    22 1   
    39    22    23 1   
    40    22    49 1   
    41    22    50 1   
    42    23    51 1   
    43    23    52 1   
    44    24    25 ar  
    45    25    26 ar  
    46    26    27 1   
    47    27    28 1   
    48    27    53 1   
    49    27    54 1   
    50    28    29 1   
    51    28    31 1   
    52    29    30 1   
    53    29    55 1   
    54    29    56 1   
    55    30    33 1   
    56    30    57 1   
    57    30    58 1   
    58    31    32 1   
    59    31    59 1   
    60    31    60 1   
    61    32    33 1   
    62    32    61 1   
    63    32    62 1   
    64    33    34 1   
    65    33    63 1   
    66    34    35 1   
    67    34    36 1   
    68    34    37 1   
    69    35    64 1   
    70    36    65 1   
    71    36    66 1   
    72    36    67 1   
    73    37    68 1   
    74    37    69 1   
    75    37    70 1   
@<TRIPOS>SUBSTRUCTURE
     1 0SC         1 TEMP              0 ****  ****    0 ROOT
