@<TRIPOS>MOLECULE
molecule
   70    75     1     0     0
SMALL
bcc


@<TRIPOS>ATOM
      1 F            0.0000     0.0000     0.0000 f          1 0SC      -0.120900
      2 C24          1.3510     0.0000     0.0000 ca         1 0SC       0.154900
      3 C23          2.0430     0.0000     1.2020 ca         1 0SC      -0.167000
      4 C22          3.4220    -0.0000     1.2230 ca         1 0SC      -0.097000
      5 C21          4.1410     0.0000     0.0320 ca         1 0SC      -0.068200
      6 N5           5.4880     0.0010    -0.2580 na         1 0SC      -0.182400
      7 C20          5.6700     0.0010    -1.6120 cc         1 0SC      -0.108100
      8 C19          4.4780     0.0020    -2.2340 cd         1 0SC      -0.174200
      9 C18          3.4530     0.0000    -1.1920 ca         1 0SC      -0.041800
     10 C17          2.0460    -0.0050    -1.2060 cp         1 0SC      -0.144500
     11 C16          1.3110    -0.0110    -2.4910 cp         1 0SC       0.784500
     12 N4           2.0090    -0.0220    -3.6110 nb         1 0SC      -0.747000
     13 C13          1.3980    -0.0270    -4.8010 ca         1 0SC       0.348300
     14 C12          2.1140    -0.0380    -6.0100 ca         1 0SC      -0.148300
     15 C11          1.4040    -0.0430    -7.1790 ca         1 0SC      -0.205300
     16 N3          -0.0210    -0.0110    -2.4580 nb         1 0SC      -0.783000
     17 C15         -0.7380    -0.0160    -3.5700 ca         1 0SC       0.632900
     18 N6          -2.1160    -0.0160    -3.5310 nh         1 0SC      -0.675300
     19 C28         -2.6650    -1.1620    -4.2700 c3         1 0SC       0.126300
     20 C27         -4.1940    -1.0910    -4.2510 c3         1 0SC       0.134900
     21 O1          -4.6470    -1.0540    -2.8950 os         1 0SC      -0.425600
     22 C26         -4.1330     0.0500    -2.1460 c3         1 0SC       0.134900
     23 C25         -2.6030    -0.0100    -2.1440 c3         1 0SC       0.126300
     24 C14         -0.0180    -0.0220    -4.8460 ca         1 0SC       0.162000
     25 N2          -0.6520    -0.0270    -6.0140 nb         1 0SC      -0.661000
     26 C10          0.0110    -0.0370    -7.1470 ca         1 0SC       0.421600
     27 C9          -0.7520    -0.0420    -8.4460 c3         1 0SC       0.116500
     28 N1          -1.1110    -1.4220    -8.7970 n3         1 0SC      -0.729600
     29 C6          -1.6440    -1.4960   -10.1640 c3         1 0SC       0.161800
     30 C5          -1.8690    -2.9600   -10.5470 c3         1 0SC      -0.076900
     31 C7          -2.0580    -1.9850    -7.8260 c3         1 0SC       0.161800
     32 C8          -2.2950    -3.4640    -8.1400 c3         1 0SC      -0.076900
     33 C4          -2.8520    -3.5960    -9.5600 c3         1 0SC      -0.055700
     34 C2          -3.0340    -5.0770    -9.9010 c3         1 0SC       0.151800
     35 O2          -4.0330    -5.6430    -9.0500 oh         1 0SC      -0.604800
     36 C3          -3.4720    -5.2130   -11.3610 c3         1 0SC      -0.121100
     37 C1          -1.7090    -5.8140    -9.6950 c3         1 0SC      -0.121100
     38 H1           1.4940    -0.0010     2.1360 ha         1 0SC       0.147000
     39 H2           3.9470    -0.0000     2.1700 ha         1 0SC       0.131000
     40 H3           6.2230     0.0000     0.4210 hn         1 0SC       0.295700
     41 H4           6.6320     0.0020    -2.1110 h4         1 0SC       0.166000
     42 H5           4.3100     0.0020    -3.3040 ha         1 0SC       0.180000
     43 H6           3.1980    -0.0430    -6.0160 ha         1 0SC       0.155000
     44 H7           1.9240    -0.0510    -8.1290 ha         1 0SC       0.145000
     45 H8          -2.3410    -2.0820    -3.8010 h1         1 0SC       0.069700
     46 H9          -2.3160    -1.1300    -5.2950 h1         1 0SC       0.069700
     47 H10         -4.5200    -0.1950    -4.7650 h1         1 0SC       0.056700
     48 H11         -4.6010    -1.9650    -4.7440 h1         1 0SC       0.056700
     49 H12         -4.4980    -0.0050    -1.1270 h1         1 0SC       0.056700
     50 H13         -4.4570     0.9770    -2.6020 h1         1 0SC       0.056700
     51 H14         -2.2790    -0.9150    -1.6450 h1         1 0SC       0.069700
     52 H15         -2.2090     0.8560    -1.6280 h1         1 0SC       0.069700
     53 H16         -0.1360     0.3820    -9.2290 h1         1 0SC       0.049700
     54 H17         -1.6540     0.5490    -8.3370 h1         1 0SC       0.049700
     55 H19         -2.5860    -0.9630   -10.2120 h1         1 0SC       0.038450
     56 H20         -0.9360    -1.0490   -10.8510 h1         1 0SC       0.038450
     57 H21         -0.9260    -3.4910   -10.5100 hc         1 0SC       0.054950
     58 H22         -2.2790    -3.0110   -11.5490 hc         1 0SC       0.054950
     59 H23         -1.6480    -1.8900    -6.8280 h1         1 0SC       0.038450
     60 H24         -2.9970    -1.4490    -7.8880 h1         1 0SC       0.038450
     61 H25         -1.3580    -4.0020    -8.0680 hc         1 0SC       0.054950
     62 H26         -3.0080    -3.8720    -7.4330 hc         1 0SC       0.054950
     63 H27         -3.8060    -3.0860    -9.6220 hc         1 0SC       0.060700
     64 H28         -4.2690    -6.4990    -9.3680 ho         1 0SC       0.402000
     65 H29         -4.2500    -4.4900   -11.5740 hc         1 0SC       0.042200
     66 H30         -3.8520    -6.2130   -11.5320 hc         1 0SC       0.042200
     67 H31         -2.6240    -5.0330   -12.0110 hc         1 0SC       0.042200
     68 H32         -1.7850    -6.8140   -10.1050 hc         1 0SC       0.042200
     69 H33         -1.4900    -5.8730    -8.6360 hc         1 0SC       0.042200
     70 H34         -0.9150    -5.2770   -10.1990 hc         1 0SC       0.042200
@<TRIPOS>BOND
     1    35    34 1   
     2    36    34 1   
     3    37    34 1   
     4    34    33 1   
     5     1     2 1   
     6     3     2 ar  
     7     3     4 ar  
     8    33    32 1   
     9    33    30 1   
    10    32    31 1   
    11     2    10 ar  
    12    30    29 1   
    13     4     5 ar  
    14    14    13 ar  
    15    14    15 ar  
    16    12    13 ar  
    17    12    11 ar  
    18    10    11 1   
    19    10     9 ar  
    20    31    28 1   
    21    13    24 ar  
    22    15    26 ar  
    23    28    29 1   
    24    28    27 1   
    25    11    16 ar  
    26     5     9 ar  
    27     5     6 1   
    28    26    25 ar  
    29    26    27 1   
    30    24    25 ar  
    31    24    17 ar  
    32     9     8 1   
    33    16    17 ar  
    34    17    18 1   
    35     6     7 1   
    36    19    18 1   
    37    19    20 1   
    38    18    23 1   
    39     8     7 2   
    40    23    22 1   
    41    20    21 1   
    42    21    22 1   
    43     3    38 1   
    44     4    39 1   
    45     6    40 1   
    46     7    41 1   
    47     8    42 1   
    48    14    43 1   
    49    15    44 1   
    50    19    45 1   
    51    19    46 1   
    52    20    47 1   
    53    20    48 1   
    54    22    49 1   
    55    22    50 1   
    56    23    51 1   
    57    23    52 1   
    58    27    53 1   
    59    27    54 1   
    60    29    55 1   
    61    29    56 1   
    62    30    57 1   
    63    30    58 1   
    64    31    59 1   
    65    31    60 1   
    66    32    61 1   
    67    32    62 1   
    68    33    63 1   
    69    35    64 1   
    70    36    65 1   
    71    36    66 1   
    72    36    67 1   
    73    37    68 1   
    74    37    69 1   
    75    37    70 1   
@<TRIPOS>SUBSTRUCTURE
     1 0SC         1 TEMP              0 ****  ****    0 ROOT
