@<TRIPOS>MOLECULE
0SD
   69    74     1     0     0
SMALL
bcc


@<TRIPOS>ATOM
      1 N            0.5790    -0.2980    -0.3820 n3         1 0SD      -0.732600
      2 C            2.5480     1.9660     3.9300 c3         1 0SD      -0.123100
      3 O           -4.7820     3.9040    -2.7840 os         1 0SD      -0.414600
      4 C1           1.1360     1.5200     3.5580 c3         1 0SD       0.154800
      5 N1          -0.1680     1.4490    -3.0610 nb         1 0SD      -0.623000
      6 O1           0.2230     2.5950     3.8120 oh         1 0SD      -0.602800
      7 C2           0.7420     0.3120     4.4000 c3         1 0SD      -0.123100
      8 N2          -0.5380     4.4060    -5.2490 nb         1 0SD      -0.760000
      9 C3           1.0210     1.2680     2.0430 c3         1 0SD      -0.052700
     10 N3           1.7340     3.5640    -5.4620 nb         1 0SD      -0.697000
     11 C4           2.0750     0.3060     1.5240 c3         1 0SD      -0.074900
     12 N4          -1.6680     6.4970    -8.9650 na         1 0SD       0.046800
     13 C5           1.9210     0.1000     0.0170 c3         1 0SD       0.172800
     14 N5          -0.7080     7.3110    -9.3870 nc         1 0SD      -0.277400
     15 C6          -0.4630     0.5690     0.1510 c3         1 0SD       0.172800
     16 N6          -2.1950     3.3390    -3.8800 nh         1 0SD      -0.719300
     17 C7          -0.3590     0.7570     1.6630 c3         1 0SD      -0.074900
     18 C8           0.4530    -0.5750    -1.7940 c3         1 0SD       0.127500
     19 C9           0.7760     0.5630    -2.7560 ca         1 0SD       0.368600
     20 C10          2.1000     0.6160    -3.3020 ca         1 0SD      -0.218300
     21 C11          2.4270     1.6070    -4.1890 ca         1 0SD      -0.146300
     22 C12          1.4330     2.5760    -4.5550 ca         1 0SD       0.323300
     23 C13          0.1370     2.4500    -3.9450 ca         1 0SD       0.170000
     24 C14         -0.8630     3.4530    -4.3600 ca         1 0SD       0.628900
     25 C15          0.7500     4.4260    -5.7710 cp         1 0SD       0.740500
     26 C16          1.0510     5.5110    -6.7430 cp         1 0SD      -0.091500
     27 C17          2.3000     6.0900    -6.7860 ca         1 0SD      -0.093000
     28 C18          2.6120     7.1240    -7.7150 ca         1 0SD      -0.138000
     29 C19          1.6980     7.5970    -8.6150 ca         1 0SD      -0.073000
     30 C20          0.3920     7.0310    -8.6080 ca         1 0SD      -0.087000
     31 C21          0.0620     5.9700    -7.6470 ca         1 0SD      -0.104000
     32 C22         -1.2900     5.6600    -7.9230 cc         1 0SD      -0.139100
     33 C23         -3.2300     3.9950    -4.6750 c3         1 0SD       0.149800
     34 C24         -4.6340     3.6310    -4.1720 c3         1 0SD       0.123900
     35 C25         -3.7990     3.2370    -2.0000 c3         1 0SD       0.123900
     36 C26         -2.3760     3.5910    -2.4530 c3         1 0SD       0.149800
     37 H2           2.5600     2.3660     4.9730 hc         1 0SD       0.043367
     38 H3           3.2530     1.1030     3.8730 hc         1 0SD       0.043367
     39 H4           2.8940     2.7690     3.2380 hc         1 0SD       0.043367
     40 H5           0.2550     2.7690     4.7590 ho         1 0SD       0.398000
     41 H6          -0.3570     0.1330     4.3230 hc         1 0SD       0.043367
     42 H7           0.9950     0.4950     5.4730 hc         1 0SD       0.043367
     43 H8           1.2850    -0.5980     4.0550 hc         1 0SD       0.043367
     44 H9           1.1730     2.2680     1.5430 hc         1 0SD       0.062700
     45 H10          1.9910    -0.6790     2.0500 hc         1 0SD       0.052700
     46 H11          3.1020     0.7130     1.7120 hc         1 0SD       0.052700
     47 H12         -2.5650     6.5340    -9.3940 hn         1 0SD       0.321700
     48 H13          2.2410     1.0490    -0.5090 h1         1 0SD       0.033450
     49 H14          2.6260    -0.7180    -0.3070 h1         1 0SD       0.033450
     50 H15         -1.4550     0.0910    -0.0890 h1         1 0SD       0.033450
     51 H16         -0.4480     1.5880    -0.3370 h1         1 0SD       0.033450
     52 H17         -1.1360     1.4940     1.9930 hc         1 0SD       0.052700
     53 H18         -0.5620    -0.2170     2.1790 hc         1 0SD       0.052700
     54 H19          1.1550    -1.4250    -2.0340 h1         1 0SD       0.068200
     55 H20         -0.6010    -0.9310    -1.9820 h1         1 0SD       0.068200
     56 H21          2.8350    -0.1420    -2.9960 ha         1 0SD       0.148000
     57 H22          3.4340     1.6770    -4.6310 ha         1 0SD       0.160000
     58 H23          3.0960     5.7630    -6.0980 ha         1 0SD       0.147000
     59 H24          3.6310     7.5410    -7.6920 ha         1 0SD       0.134000
     60 H25          1.9420     8.3930    -9.3320 ha         1 0SD       0.146000
     61 H26         -1.9720     4.9470    -7.4610 h4         1 0SD       0.189000
     62 H27         -3.1320     3.6510    -5.7420 h1         1 0SD       0.058200
     63 H28         -3.1220     5.1180    -4.6520 h1         1 0SD       0.058200
     64 H29         -4.8610     2.5500    -4.3690 h1         1 0SD       0.057950
     65 H30         -5.3970     4.2850    -4.6700 h1         1 0SD       0.057950
     66 H31         -3.9670     2.1290    -2.0460 h1         1 0SD       0.057950
     67 H32         -3.9690     3.6140    -0.9570 h1         1 0SD       0.057950
     68 H33         -2.1880     4.6800    -2.2200 h1         1 0SD       0.058200
     69 H34         -1.6530     2.9740    -1.8560 h1         1 0SD       0.058200
@<TRIPOS>BOND
     1     1    13 1   
     2     1    15 1   
     3     1    18 1   
     4     2     4 1   
     5     2    37 1   
     6     2    38 1   
     7     2    39 1   
     8     3    34 1   
     9     3    35 1   
    10     4     6 1   
    11     4     7 1   
    12     4     9 1   
    13     5    19 ar  
    14     5    23 ar  
    15     6    40 1   
    16     7    41 1   
    17     7    42 1   
    18     7    43 1   
    19     8    24 ar  
    20     8    25 ar  
    21     9    11 1   
    22     9    17 1   
    23     9    44 1   
    24    10    22 ar  
    25    10    25 ar  
    26    11    13 1   
    27    11    45 1   
    28    11    46 1   
    29    12    14 1   
    30    12    32 1   
    31    12    47 1   
    32    13    48 1   
    33    13    49 1   
    34    14    30 2   
    35    15    17 1   
    36    15    50 1   
    37    15    51 1   
    38    16    24 1   
    39    16    33 1   
    40    16    36 1   
    41    17    52 1   
    42    17    53 1   
    43    18    19 1   
    44    18    54 1   
    45    18    55 1   
    46    19    20 ar  
    47    20    21 ar  
    48    20    56 1   
    49    21    22 ar  
    50    21    57 1   
    51    22    23 ar  
    52    23    24 ar  
    53    25    26 1   
    54    26    27 ar  
    55    26    31 ar  
    56    27    28 ar  
    57    27    58 1   
    58    28    29 ar  
    59    28    59 1   
    60    29    30 ar  
    61    29    60 1   
    62    30    31 ar  
    63    31    32 2   
    64    32    61 1   
    65    33    34 1   
    66    33    62 1   
    67    33    63 1   
    68    34    64 1   
    69    34    65 1   
    70    35    36 1   
    71    35    66 1   
    72    35    67 1   
    73    36    68 1   
    74    36    69 1   
@<TRIPOS>SUBSTRUCTURE
     1 0SD         1 TEMP              0 ****  ****    0 ROOT
