@<TRIPOS>MOLECULE
molecule
   69    74     1     0     0
SMALL
bcc


@<TRIPOS>ATOM
      1 N            0.0000     0.0000     0.0000 n3         1 0SD      -0.719600
      2 C            3.4380     1.2150     3.6810 c3         1 0SD      -0.123100
      3 O           -2.2620    -6.4910     0.5480 os         1 0SD      -0.426600
      4 C1           1.9090     1.2160     3.6250 c3         1 0SD       0.151800
      5 N1          -2.4560    -1.6060    -1.1380 nb         1 0SD      -0.637000
      6 O1           1.4090     0.0380     4.2620 oh         1 0SD      -0.600800
      7 C2           1.3740     2.4530     4.3500 c3         1 0SD      -0.123100
      8 N2          -5.5870    -3.3820    -0.8510 nb         1 0SD      -0.798000
      9 C3           1.4510     1.2420     2.1660 c3         1 0SD      -0.053700
     10 N3          -6.0050    -1.1040    -1.1430 nb         1 0SD      -0.764000
     11 C4           1.9800     0.0000     1.4420 c3         1 0SD      -0.072900
     12 N4          -9.9770     0.3610    -1.2710 na         1 0SD       0.009800
     13 C5           1.4690     0.0000     0.0000 c3         1 0SD       0.160800
     14 N5         -10.9110    -0.6710    -1.1170 nc         1 0SD      -0.275400
     15 C6          -0.5300     1.2060     0.6480 c3         1 0SD       0.160800
     16 N6          -3.4200    -4.2970    -0.7690 nh         1 0SD      -0.674300
     17 C7          -0.0790     1.2430     2.1100 c3         1 0SD      -0.072900
     18 C8          -0.5260    -0.1410    -1.3640 c3         1 0SD       0.116500
     19 C9          -2.0130    -0.3820    -1.3070 ca         1 0SD       0.420600
     20 C10         -2.8820     0.6990    -1.4340 ca         1 0SD      -0.220300
     21 C11         -4.2330     0.4990    -1.3840 ca         1 0SD      -0.150300
     22 C12         -4.7000    -0.8140    -1.2030 ca         1 0SD       0.349300
     23 C13         -3.7580    -1.8650    -1.0820 ca         1 0SD       0.163000
     24 C14         -4.2740    -3.2220    -0.8940 ca         1 0SD       0.638900
     25 C15         -6.4170    -2.3460    -0.9730 cp         1 0SD       0.786500
     26 C16         -7.8730    -2.6020    -0.9140 cp         1 0SD      -0.083500
     27 C17         -8.3580    -3.8830    -0.7360 ca         1 0SD      -0.104000
     28 C18         -9.7260    -4.1370    -0.6800 ca         1 0SD      -0.118000
     29 C19        -10.6570    -3.1580    -0.7930 ca         1 0SD      -0.083000
     30 C20        -10.2670    -1.8150    -0.9770 ca         1 0SD      -0.046000
     31 C21         -8.8310    -1.5010    -1.0430 ca         1 0SD      -0.171000
     32 C22         -8.7340    -0.1410    -1.2310 cc         1 0SD      -0.087100
     33 C23         -4.1710    -5.5480    -0.5920 c3         1 0SD       0.126800
     34 C24         -3.1890    -6.7210    -0.5160 c3         1 0SD       0.135400
     35 C25         -1.5130    -5.2810     0.4070 c3         1 0SD       0.135400
     36 C26         -2.4780    -4.0950     0.3410 c3         1 0SD       0.126800
     37 H2           3.8070     0.2260     3.4400 hc         1 0SD       0.042367
     38 H3           3.8250     1.9300     2.9650 hc         1 0SD       0.042367
     39 H4           3.7630     1.4890     4.6770 hc         1 0SD       0.042367
     40 H5           1.6910     0.0230     5.1610 ho         1 0SD       0.402000
     41 H6           1.5000     3.3240     3.7180 hc         1 0SD       0.042367
     42 H7           1.9210     2.5950     5.2740 hc         1 0SD       0.042367
     43 H8           0.3220     2.3160     4.5700 hc         1 0SD       0.042367
     44 H9           1.8300     2.1320     1.6780 hc         1 0SD       0.050700
     45 H10          1.6280    -0.8900     1.9500 hc         1 0SD       0.058950
     46 H11          3.0630     0.0170     1.4410 hc         1 0SD       0.058950
     47 H12        -10.2040     1.3280    -1.3930 hn         1 0SD       0.329700
     48 H13          1.8290    -0.8860    -0.5090 h1         1 0SD       0.032200
     49 H14          1.8290     0.8860    -0.5090 h1         1 0SD       0.032200
     50 H15         -1.6130     1.1900     0.6060 h1         1 0SD       0.032200
     51 H16         -0.1570     2.0840     0.1340 h1         1 0SD       0.032200
     52 H17         -0.4570     2.1420     2.5810 hc         1 0SD       0.058950
     53 H18         -0.4600     0.3700     2.6260 hc         1 0SD       0.058950
     54 H19         -0.0430    -0.9780    -1.8530 h1         1 0SD       0.049200
     55 H20         -0.3280     0.7670    -1.9220 h1         1 0SD       0.049200
     56 H21         -2.4880     1.6980    -1.5730 ha         1 0SD       0.141000
     57 H22         -4.9230     1.3280    -1.4810 ha         1 0SD       0.152000
     58 H23         -7.6610    -4.7060    -0.6390 ha         1 0SD       0.150000
     59 H24        -10.0590    -5.1580    -0.5390 ha         1 0SD       0.131000
     60 H25        -11.7100    -3.4090    -0.7420 ha         1 0SD       0.138000
     61 H26         -7.8150     0.4260    -1.3240 h4         1 0SD       0.197000
     62 H27         -4.7440    -5.4980     0.3270 h1         1 0SD       0.069950
     63 H28         -4.8390    -5.6900    -1.4330 h1         1 0SD       0.069950
     64 H29         -2.6510    -6.8020    -1.4530 h1         1 0SD       0.057700
     65 H30         -3.7360    -7.6370    -0.3270 h1         1 0SD       0.057700
     66 H31         -0.8540    -5.1640     1.2590 h1         1 0SD       0.057700
     67 H32         -0.9300    -5.3230    -0.5050 h1         1 0SD       0.057700
     68 H33         -1.9170    -3.1830     0.1770 h1         1 0SD       0.069950
     69 H34         -3.0270    -4.0250     1.2720 h1         1 0SD       0.069950
@<TRIPOS>BOND
     1     2     4 1
     2     6     4 1
     3     4     7 1
     4     4     9 1
     5     9    17 1
     6     9    11 1
     7    17    15 1
     8    11    13 1
     9    28    27 ar
    10    28    29 ar
    11    27    26 ar
    12    15     1 1
    13    29    30 ar
    14    13     1 1
    15    21    20 ar
    16    21    22 ar
    17    10    22 ar
    18    10    25 ar
    19    26    25 1
    20    26    31 ar
    21    20    19 ar
    22     1    18 1
    23    22    23 ar
    24    25     8 ar
    25    30    31 ar
    26    30    14 2
    27    31    32 2
    28    19     5 ar
    29    19    18 1
    30    23     5 ar
    31    23    24 ar
    32     8    24 ar
    33    24    16 1
    34    14    12 1
    35    36    16 1
    36    36    35 1
    37    32    12 1
    38    16    33 1
    39    33    34 1
    40    35     3 1
    41     3    34 1
    42     2    37 1
    43     2    38 1
    44     2    39 1
    45     6    40 1
    46     7    41 1
    47     7    42 1
    48     7    43 1
    49     9    44 1
    50    11    45 1
    51    11    46 1
    52    12    47 1
    53    13    48 1
    54    13    49 1
    55    15    50 1
    56    15    51 1
    57    17    52 1
    58    17    53 1
    59    18    54 1
    60    18    55 1
    61    20    56 1
    62    21    57 1
    63    27    58 1
    64    28    59 1
    65    29    60 1
    66    32    61 1
    67    33    62 1
    68    33    63 1
    69    34    64 1
    70    34    65 1
    71    35    66 1
    72    35    67 1
    73    36    68 1
    74    36    69 1
@<TRIPOS>SUBSTRUCTURE
     1 0SD         1 TEMP              0 ****  ****    0 ROOT
