@<TRIPOS>MOLECULE
0SD
   69    74     1     0     0
SMALL
bcc


@<TRIPOS>ATOM
      1 N            0.0000     0.0000     0.0000 n3         1 0SD      -0.527600
      2 C            3.4380     1.2150     3.6810 c3         1 0SD      -0.039100
      3 O           -2.2620    -6.4910     0.5480 os         1 0SD      -0.411600
      4 C1           1.9090     1.2160     3.6250 c3         1 0SD       0.169800
      5 N1          -2.4560    -1.6060    -1.1380 nb         1 0SD      -0.501000
      6 O1           1.4090     0.0380     4.2620 oh         1 0SD      -0.582800
      7 C2           1.3740     2.4530     4.3500 c3         1 0SD      -0.039100
      8 N2          -5.5870    -3.3820    -0.8510 nb         1 0SD      -0.686000
      9 C3           1.4510     1.2420     2.1660 c3         1 0SD      -0.044700
     10 N3          -6.0050    -1.1040    -1.1430 nb         1 0SD      -0.653000
     11 C4           1.9800     0.0000     1.4420 c3         1 0SD      -0.030400
     12 N4          -9.9770     0.3610    -1.2710 na         1 0SD       0.534800
     13 C5           1.4690     0.0000     0.0000 c3         1 0SD       0.149300
     14 N5         -10.9110    -0.6710    -1.1170 nc         1 0SD      -0.441400
     15 C6          -0.5300     1.2060     0.6480 c3         1 0SD       0.149300
     16 N6          -3.4200    -4.2970    -0.7690 nh         1 0SD      -0.420300
     17 C7          -0.0790     1.2430     2.1100 c3         1 0SD      -0.030400
     18 C8          -0.5260    -0.1410    -1.3640 c3         1 0SD       0.107500
     19 C9          -2.0130    -0.3820    -1.3070 ca         1 0SD       0.354600
     20 C10         -2.8820     0.6990    -1.4340 ca         1 0SD      -0.184300
     21 C11         -4.2330     0.4990    -1.3840 ca         1 0SD      -0.131300
     22 C12         -4.7000    -0.8140    -1.2030 ca         1 0SD       0.313300
     23 C13         -3.7580    -1.8650    -1.0820 ca         1 0SD       0.115000
     24 C14         -4.2740    -3.2220    -0.8940 ca         1 0SD       0.498900
     25 C15         -6.4170    -2.3460    -0.9730 cp         1 0SD       0.713500
     26 C16         -7.8730    -2.6020    -0.9140 cp         1 0SD      -0.097500
     27 C17         -8.3580    -3.8830    -0.7360 ca         1 0SD      -0.085000
     28 C18         -9.7260    -4.1370    -0.6800 ca         1 0SD      -0.096000
     29 C19        -10.6570    -3.1580    -0.7930 ca         1 0SD      -0.058000
     30 C20        -10.2670    -1.8150    -0.9770 ca         1 0SD      -0.016000
     31 C21         -8.8310    -1.5010    -1.0430 ca         1 0SD      -0.165000
     32 C22         -8.7340    -0.1410    -1.2310 cc         1 0SD      -0.263100
     33 C23         -4.1710    -5.5480    -0.5920 c3         1 0SD       0.082300
     34 C24         -3.1890    -6.7210    -0.5160 c3         1 0SD       0.212900
     35 C25         -1.5130    -5.2810     0.4070 c3         1 0SD       0.212900
     36 C26         -2.4780    -4.0950     0.3410 c3         1 0SD       0.082300
     37 H2           3.8070     0.2260     3.4400 hc         1 0SD       0.013700
     38 H3           3.8250     1.9300     2.9650 hc         1 0SD       0.013700
     39 H4           3.7630     1.4890     4.6770 hc         1 0SD       0.013700
     40 H5           1.6910     0.0230     5.1610 ho         1 0SD       0.391000
     41 H6           1.5000     3.3240     3.7180 hc         1 0SD       0.013700
     42 H7           1.9210     2.5950     5.2740 hc         1 0SD       0.013700
     43 H8           0.3220     2.3160     4.5700 hc         1 0SD       0.013700
     44 H9           1.8300     2.1320     1.6780 hc         1 0SD       0.030700
     45 H10          1.6280    -0.8900     1.9500 hc         1 0SD       0.031950
     46 H11          3.0630     0.0170     1.4410 hc         1 0SD       0.031950
     47 H12        -10.2040     1.3280    -1.3930 hn         1 0SD       0.139700
     48 H13          1.8290    -0.8860    -0.5090 h1         1 0SD       0.007700
     49 H14          1.8290     0.8860    -0.5090 h1         1 0SD       0.007700
     50 H15         -1.6130     1.1900     0.6060 h1         1 0SD       0.007700
     51 H16         -0.1570     2.0840     0.1340 h1         1 0SD       0.007700
     52 H17         -0.4570     2.1420     2.5810 hc         1 0SD       0.031950
     53 H18         -0.4600     0.3700     2.6260 hc         1 0SD       0.031950
     54 H19         -0.0430    -0.9780    -1.8530 h1         1 0SD       0.018700
     55 H20         -0.3280     0.7670    -1.9220 h1         1 0SD       0.018700
     56 H21         -2.4880     1.6980    -1.5730 ha         1 0SD       0.116000
     57 H22         -4.9230     1.3280    -1.4810 ha         1 0SD       0.120000
     58 H23         -7.6610    -4.7060    -0.6390 ha         1 0SD       0.121000
     59 H24        -10.0590    -5.1580    -0.5390 ha         1 0SD       0.100000
     60 H25        -11.7100    -3.4090    -0.7420 ha         1 0SD       0.108000
     61 H26         -7.8150     0.4260    -1.3240 h4         1 0SD       0.170000
     62 H27         -4.7440    -5.4980     0.3270 h1         1 0SD       0.042950
     63 H28         -4.8390    -5.6900    -1.4330 h1         1 0SD       0.042950
     64 H29         -2.6510    -6.8020    -1.4530 h1         1 0SD       0.015700
     65 H30         -3.7360    -7.6370    -0.3270 h1         1 0SD       0.015700
     66 H31         -0.8540    -5.1640     1.2590 h1         1 0SD       0.015700
     67 H32         -0.9300    -5.3230    -0.5050 h1         1 0SD       0.015700
     68 H33         -1.9170    -3.1830     0.1770 h1         1 0SD       0.042950
     69 H34         -3.0270    -4.0250     1.2720 h1         1 0SD       0.042950
@<TRIPOS>BOND
     1     1    13 1   
     2     1    15 1   
     3     1    18 1   
     4     2     4 1   
     5     2    37 1   
     6     2    38 1   
     7     2    39 1   
     8     3    34 1   
     9     3    35 1   
    10     4     6 1   
    11     4     7 1   
    12     4     9 1   
    13     5    19 ar  
    14     5    23 ar  
    15     6    40 1   
    16     7    41 1   
    17     7    42 1   
    18     7    43 1   
    19     8    24 ar  
    20     8    25 ar  
    21     9    11 1   
    22     9    17 1   
    23     9    44 1   
    24    10    22 ar  
    25    10    25 ar  
    26    11    13 1   
    27    11    45 1   
    28    11    46 1   
    29    12    14 1   
    30    12    32 1   
    31    12    47 1   
    32    13    48 1   
    33    13    49 1   
    34    14    30 2   
    35    15    17 1   
    36    15    50 1   
    37    15    51 1   
    38    16    24 1   
    39    16    33 1   
    40    16    36 1   
    41    17    52 1   
    42    17    53 1   
    43    18    19 1   
    44    18    54 1   
    45    18    55 1   
    46    19    20 ar  
    47    20    21 ar  
    48    20    56 1   
    49    21    22 ar  
    50    21    57 1   
    51    22    23 ar  
    52    23    24 ar  
    53    25    26 1   
    54    26    27 ar  
    55    26    31 ar  
    56    27    28 ar  
    57    27    58 1   
    58    28    29 ar  
    59    28    59 1   
    60    29    30 ar  
    61    29    60 1   
    62    30    31 ar  
    63    31    32 2   
    64    32    61 1   
    65    33    34 1   
    66    33    62 1   
    67    33    63 1   
    68    34    64 1   
    69    34    65 1   
    70    35    36 1   
    71    35    66 1   
    72    35    67 1   
    73    36    68 1   
    74    36    69 1   
@<TRIPOS>SUBSTRUCTURE
     1 0SD         1 TEMP              0 ****  ****    0 ROOT
