@<TRIPOS>MOLECULE
0SE
   66    70     1     0     0
SMALL
bcc


@<TRIPOS>ATOM
      1 C1           0.6090     0.1870    -0.5490 c3         1 0SE      -0.123100
      2 C2           1.8210    -0.5260     0.0400 c3         1 0SE       0.155800
      3 C3           3.0790    -0.1100    -0.7190 c3         1 0SE      -0.123100
      4 C4           1.9890    -0.2920     1.5520 c3         1 0SE      -0.052700
      5 C5           2.4040     1.1300     1.8870 c3         1 0SE      -0.074400
      6 C6           2.5660     1.2990     3.3970 c3         1 0SE       0.168800
      7 N7           1.3880     0.8990     4.1560 n3         1 0SE      -0.733600
      8 C8           0.9280    -0.4440     3.8180 c3         1 0SE       0.168800
      9 C9           0.7240    -0.6420     2.3180 c3         1 0SE      -0.074400
     10 C10          1.5750     1.0540     5.5930 c3         1 0SE       0.116500
     11 C11          1.6810     2.5110     6.0060 ca         1 0SE       0.403600
     12 C12          0.5600     3.3620     5.7330 ca         1 0SE      -0.197300
     13 C13          0.5960     4.6700     6.1360 ca         1 0SE      -0.158300
     14 C14          1.7520     5.1610     6.8330 ca         1 0SE       0.338300
     15 C15          2.8330     4.2370     7.0460 ca         1 0SE       0.155000
     16 N16          2.7790     2.9340     6.6280 nb         1 0SE      -0.640000
     17 C17          3.9950     4.7720     7.7870 ca         1 0SE       0.663900
     18 N18          3.9900     6.0490     8.2160 nb         1 0SE      -0.789000
     19 C19          2.8840     6.8450     7.9520 cp         1 0SE       0.775500
     20 N20          1.7810     6.4590     7.2810 nb         1 0SE      -0.725000
     21 C21          2.9470     8.2320     8.4490 cp         1 0SE      -0.451100
     22 C22          2.0980     9.2440     7.9410 ca         1 0SE       0.513200
     23 N23          2.1280    10.5120     8.3660 nb         1 0SE      -0.767000
     24 C24          3.0650    10.8140     9.3570 ca         1 0SE       0.891900
     25 N25          3.9290     9.8790     9.9320 nb         1 0SE      -0.767000
     26 C26          3.8510     8.6290     9.4630 ca         1 0SE       0.513200
     27 N27          3.1730    12.1330     9.7650 nv         1 0SE      -0.941500
     28 N28          5.0600     3.9280     8.1400 nh         1 0SE      -0.745300
     29 C29          5.9260     4.3160     9.2440 c3         1 0SE       0.170800
     30 C30          7.2210     3.4910     9.3030 c3         1 0SE       0.122400
     31 O31          7.0310     2.1250     8.9750 os         1 0SE      -0.410600
     32 C32          6.4230     1.9200     7.7020 c3         1 0SE       0.122400
     33 C33          5.7530     3.1710     7.1170 c3         1 0SE       0.170800
     34 O34          1.6460    -1.9440    -0.0850 oh         1 0SE      -0.603800
     35 H1          -0.3320    -0.2890    -0.1810 hc         1 0SE       0.043533
     36 H2           0.6280     0.1160    -1.6630 hc         1 0SE       0.043533
     37 H3           0.6110     1.2630    -0.2590 hc         1 0SE       0.043533
     38 H4           3.9860    -0.5290    -0.2220 hc         1 0SE       0.043533
     39 H5           3.0380    -0.4950    -1.7660 hc         1 0SE       0.043533
     40 H6           3.1590     1.0020    -0.7510 hc         1 0SE       0.043533
     41 H7           2.8080    -0.9910     1.8920 hc         1 0SE       0.061700
     42 H8           3.3860     1.3750     1.4060 hc         1 0SE       0.053200
     43 H9           1.6410     1.8550     1.5040 hc         1 0SE       0.053200
     44 H10          2.7560     2.3860     3.6230 h1         1 0SE       0.033450
     45 H11          3.4810     0.7190     3.7230 h1         1 0SE       0.033450
     46 H13          1.6460    -1.2320     4.1920 h1         1 0SE       0.033450
     47 H14         -0.0580    -0.6060     4.3400 h1         1 0SE       0.033450
     48 H15          0.4530    -1.7120     2.1260 hc         1 0SE       0.053200
     49 H16         -0.1250    -0.0000     1.9670 hc         1 0SE       0.053200
     50 H17          2.4720     0.4760     5.9640 h1         1 0SE       0.053700
     51 H18          0.6630     0.6380     6.1120 h1         1 0SE       0.053700
     52 H19         -0.3040     2.9460     5.1950 ha         1 0SE       0.161000
     53 H20         -0.2440     5.3550     5.9410 ha         1 0SE       0.159000
     54 H21          1.3490     9.0310     7.1530 h4         1 0SE       0.045600
     55 H22          4.5480     7.9090     9.9340 h4         1 0SE       0.045600
     56 H23          3.7140    12.3380    10.5690 hn         1 0SE       0.442300
     57 H24          2.4680    12.7730     9.4920 hn         1 0SE       0.442300
     58 H25          5.3350     4.1570    10.1890 h1         1 0SE       0.060700
     59 H26          6.2280     5.4020     9.1970 h1         1 0SE       0.060700
     60 H27          7.6080     3.4720    10.3560 h1         1 0SE       0.053950
     61 H28          7.9950     3.9350     8.6210 h1         1 0SE       0.053950
     62 H29          5.6740     1.1000     7.8670 h1         1 0SE       0.053950
     63 H30          7.2220     1.5730     6.9940 h1         1 0SE       0.053950
     64 H31          5.0590     2.8480     6.2980 h1         1 0SE       0.060700
     65 H32          6.5540     3.8180     6.6470 h1         1 0SE       0.060700
     66 H33          1.5200    -2.1260    -1.0230 ho         1 0SE       0.398000
@<TRIPOS>BOND
     1     1     2 1   
     2     1    35 1   
     3     1    36 1   
     4     1    37 1   
     5     2     3 1   
     6     2     4 1   
     7     2    34 1   
     8     3    38 1   
     9     3    39 1   
    10     3    40 1   
    11     4     5 1   
    12     4     9 1   
    13     4    41 1   
    14     5     6 1   
    15     5    42 1   
    16     5    43 1   
    17     6     7 1   
    18     6    44 1   
    19     6    45 1   
    20     7     8 1   
    21     7    10 1   
    22     8     9 1   
    23     8    46 1   
    24     8    47 1   
    25     9    48 1   
    26     9    49 1   
    27    10    11 1   
    28    10    50 1   
    29    10    51 1   
    30    11    12 ar  
    31    11    16 ar  
    32    12    13 ar  
    33    12    52 1   
    34    13    14 ar  
    35    13    53 1   
    36    14    15 ar  
    37    14    20 ar  
    38    15    16 ar  
    39    15    17 ar  
    40    17    18 ar  
    41    17    28 1   
    42    18    19 ar  
    43    19    20 ar  
    44    19    21 1   
    45    21    22 ar  
    46    21    26 ar  
    47    22    23 ar  
    48    22    54 1   
    49    23    24 ar  
    50    24    25 ar  
    51    24    27 1   
    52    25    26 ar  
    53    26    55 1   
    54    27    56 1   
    55    27    57 1   
    56    28    29 1   
    57    28    33 1   
    58    29    30 1   
    59    29    58 1   
    60    29    59 1   
    61    30    31 1   
    62    30    60 1   
    63    30    61 1   
    64    31    32 1   
    65    32    33 1   
    66    32    62 1   
    67    32    63 1   
    68    33    64 1   
    69    33    65 1   
    70    34    66 1   
@<TRIPOS>SUBSTRUCTURE
     1 0SE         1 TEMP              0 ****  ****    0 ROOT
