@<TRIPOS>MOLECULE
0SE
   66    70     1     0     0
SMALL
bcc


@<TRIPOS>ATOM
      1 C1           0.0000     0.0000     0.0000 c3         1 0SE      -0.042100
      2 C2           1.5300     0.0000     0.0000 c3         1 0SE       0.171800
      3 C3           2.0400     1.2500    -0.7200 c3         1 0SE      -0.042100
      4 C4           2.0400     0.0000     1.4430 c3         1 0SE      -0.045700
      5 C5           3.5660     0.1250     1.4460 c3         1 0SE      -0.033900
      6 C6           4.0650     0.1850     2.8910 c3         1 0SE       0.149800
      7 N7           3.4600     1.3370     3.5720 n3         1 0SE      -0.532600
      8 C8           1.9980     1.2140     3.6230 c3         1 0SE       0.149800
      9 C9           1.4360     1.1850     2.2000 c3         1 0SE      -0.033900
     10 C10          4.0210     1.5060     4.9190 c3         1 0SE       0.106500
     11 C11          3.5660     2.8240     5.4910 ca         1 0SE       0.360600
     12 C12          2.4440     2.8560     6.3160 ca         1 0SE      -0.186300
     13 C13          2.0160     4.0410     6.8450 ca         1 0SE      -0.123300
     14 C14          2.7390     5.2050     6.5270 ca         1 0SE       0.311300
     15 C15          3.8690     5.0970     5.6810 ca         1 0SE       0.119000
     16 N16          4.2390     3.9140     5.2030 nb         1 0SE      -0.506000
     17 C17          4.6020     6.3250     5.3680 ca         1 0SE       0.499900
     18 N18          4.1610     7.4580     5.8960 nb         1 0SE      -0.690000
     19 C19          3.0890     7.4840     6.6840 cp         1 0SE       0.712500
     20 N20          2.3930     6.4080     6.9970 nb         1 0SE      -0.639000
     21 C21          2.6550     8.7880     7.2380 cp         1 0SE      -0.417100
     22 C22          3.3510     9.9620     6.9360 ca         1 0SE       0.481700
     23 N23          2.9340    11.1060     7.4500 nb         1 0SE      -0.641000
     24 C24          1.8700    11.1480     8.2400 ca         1 0SE       0.724900
     25 N25          1.1850    10.0560     8.5510 nb         1 0SE      -0.641000
     26 C26          1.5370     8.8760     8.0730 ca         1 0SE       0.481700
     27 N27          1.4660    12.3640     8.7570 nv         1 0SE      -0.642500
     28 N28          5.7140     6.3030     4.5530 nh         1 0SE      -0.418300
     29 C29          6.2730     7.6530     4.3890 c3         1 0SE       0.082300
     30 C30          7.5370     7.5750     3.5270 c3         1 0SE       0.212900
     31 O31          7.2160     6.9660     2.2740 os         1 0SE      -0.411600
     32 C32          6.6690     5.6500     2.3960 c3         1 0SE       0.212900
     33 C33          5.3970     5.7080     3.2460 c3         1 0SE       0.082300
     34 O34          2.0060    -1.1660    -0.6740 oh         1 0SE      -0.588800
     35 H1          -0.3610    -0.2640    -0.9870 hc         1 0SE       0.015200
     36 H2          -0.3610    -0.7220     0.7220 hc         1 0SE       0.015200
     37 H3          -0.3610     0.9860     0.2650 hc         1 0SE       0.015200
     38 H4           1.5330     1.3510    -1.6720 hc         1 0SE       0.015200
     39 H5           3.1070     1.1610    -0.8870 hc         1 0SE       0.015200
     40 H6           1.8420     2.1240    -0.1110 hc         1 0SE       0.015200
     41 H7           1.7540    -0.9230     1.9320 hc         1 0SE       0.037700
     42 H8           3.8540     1.0310     0.9270 hc         1 0SE       0.030950
     43 H9           3.9990    -0.7350     0.9500 hc         1 0SE       0.030950
     44 H10          3.7860    -0.7260     3.4060 h1         1 0SE       0.010450
     45 H11          5.1440     0.2910     2.8950 h1         1 0SE       0.010450
     46 H13          1.7310     0.2960     4.1340 h1         1 0SE       0.010450
     47 H14          1.5840     2.0620     4.1560 h1         1 0SE       0.010450
     48 H15          0.3590     1.0770     2.2400 hc         1 0SE       0.030950
     49 H16          1.6940     2.1070     1.6930 hc         1 0SE       0.030950
     50 H17          3.6810     0.6990     5.5570 h1         1 0SE       0.020700
     51 H18          5.1030     1.4910     4.8640 h1         1 0SE       0.020700
     52 H19          1.9350     1.9340     6.5730 ha         1 0SE       0.119000
     53 H20          1.1450     4.0830     7.4880 ha         1 0SE       0.127000
     54 H21          4.2210     9.9350     6.2910 h4         1 0SE       0.002100
     55 H22          0.9720     7.9880     8.3300 h4         1 0SE       0.002100
     56 H23          0.8080    12.9270     8.2550 hn         1 0SE       0.281800
     57 H24          1.8290    12.6800     9.6350 hn         1 0SE       0.281800
     58 H25          6.5250     8.0600     5.3610 h1         1 0SE       0.042200
     59 H26          5.5440     8.2900     3.9020 h1         1 0SE       0.042200
     60 H27          7.9180     8.5740     3.3550 h1         1 0SE       0.016200
     61 H28          8.2840     6.9790     4.0370 h1         1 0SE       0.016200
     62 H29          7.3930     5.0020     2.8760 h1         1 0SE       0.016200
     63 H30          6.4280     5.2670     1.4120 h1         1 0SE       0.016200
     64 H31          4.6550     6.3170     2.7430 h1         1 0SE       0.042200
     65 H32          5.0130     4.7060     3.3900 h1         1 0SE       0.042200
     66 H33          1.5520    -1.2620    -1.4950 ho         1 0SE       0.394000
@<TRIPOS>BOND
     1     1     2 1   
     2     1    35 1   
     3     1    36 1   
     4     1    37 1   
     5     2     3 1   
     6     2     4 1   
     7     2    34 1   
     8     3    38 1   
     9     3    39 1   
    10     3    40 1   
    11     4     5 1   
    12     4     9 1   
    13     4    41 1   
    14     5     6 1   
    15     5    42 1   
    16     5    43 1   
    17     6     7 1   
    18     6    44 1   
    19     6    45 1   
    20     7     8 1   
    21     7    10 1   
    22     8     9 1   
    23     8    46 1   
    24     8    47 1   
    25     9    48 1   
    26     9    49 1   
    27    10    11 1   
    28    10    50 1   
    29    10    51 1   
    30    11    12 ar  
    31    11    16 ar  
    32    12    13 ar  
    33    12    52 1   
    34    13    14 ar  
    35    13    53 1   
    36    14    15 ar  
    37    14    20 ar  
    38    15    16 ar  
    39    15    17 ar  
    40    17    18 ar  
    41    17    28 1   
    42    18    19 ar  
    43    19    20 ar  
    44    19    21 1   
    45    21    22 ar  
    46    21    26 ar  
    47    22    23 ar  
    48    22    54 1   
    49    23    24 ar  
    50    24    25 ar  
    51    24    27 1   
    52    25    26 ar  
    53    26    55 1   
    54    27    56 1   
    55    27    57 1   
    56    28    29 1   
    57    28    33 1   
    58    29    30 1   
    59    29    58 1   
    60    29    59 1   
    61    30    31 1   
    62    30    60 1   
    63    30    61 1   
    64    31    32 1   
    65    32    33 1   
    66    32    62 1   
    67    32    63 1   
    68    33    64 1   
    69    33    65 1   
    70    34    66 1   
@<TRIPOS>SUBSTRUCTURE
     1 0SE         1 TEMP              0 ****  ****    0 ROOT
