@<TRIPOS>MOLECULE
molecule
   66    70     1     0     0
SMALL
bcc


@<TRIPOS>ATOM
      1 C1           0.0000     0.0000     0.0000 c3         1 0SE      -0.122100
      2 C2           1.5300     0.0000     0.0000 c3         1 0SE       0.152800
      3 C3           2.0400     1.2500    -0.7200 c3         1 0SE      -0.122100
      4 C4           2.0400     0.0000     1.4430 c3         1 0SE      -0.055700
      5 C5           3.5660     0.1250     1.4460 c3         1 0SE      -0.074900
      6 C6           4.0650     0.1850     2.8910 c3         1 0SE       0.161300
      7 N7           3.4600     1.3370     3.5720 n3         1 0SE      -0.723600
      8 C8           1.9980     1.2140     3.6230 c3         1 0SE       0.161300
      9 C9           1.4360     1.1850     2.2000 c3         1 0SE      -0.074900
     10 C10          4.0210     1.5060     4.9190 c3         1 0SE       0.115500
     11 C11          3.5660     2.8240     5.4910 ca         1 0SE       0.424600
     12 C12          2.4440     2.8560     6.3160 ca         1 0SE      -0.223300
     13 C13          2.0160     4.0410     6.8450 ca         1 0SE      -0.144300
     14 C14          2.7390     5.2050     6.5270 ca         1 0SE       0.349300
     15 C15          3.8690     5.0970     5.6810 ca         1 0SE       0.165000
     16 N16          4.2390     3.9140     5.2030 nb         1 0SE      -0.640000
     17 C17          4.6020     6.3250     5.3680 ca         1 0SE       0.639900
     18 N18          4.1610     7.4580     5.8960 nb         1 0SE      -0.804000
     19 C19          3.0890     7.4840     6.6840 cp         1 0SE       0.785500
     20 N20          2.3930     6.4080     6.9970 nb         1 0SE      -0.755000
     21 C21          2.6550     8.7880     7.2380 cp         1 0SE      -0.412100
     22 C22          3.3510     9.9620     6.9360 ca         1 0SE       0.505200
     23 N23          2.9340    11.1060     7.4500 nb         1 0SE      -0.755000
     24 C24          1.8700    11.1480     8.2400 ca         1 0SE       0.942900
     25 N25          1.1850    10.0560     8.5510 nb         1 0SE      -0.755000
     26 C26          1.5370     8.8760     8.0730 ca         1 0SE       0.505200
     27 N27          1.4660    12.3640     8.7570 nv         1 0SE      -1.062500
     28 N28          5.7140     6.3030     4.5530 nh         1 0SE      -0.673300
     29 C29          6.2730     7.6530     4.3890 c3         1 0SE       0.126300
     30 C30          7.5370     7.5750     3.5270 c3         1 0SE       0.135900
     31 O31          7.2160     6.9660     2.2740 os         1 0SE      -0.425600
     32 C32          6.6690     5.6500     2.3960 c3         1 0SE       0.135900
     33 C33          5.3970     5.7080     3.2460 c3         1 0SE       0.126300
     34 O34          2.0060    -1.1660    -0.6740 oh         1 0SE      -0.604800
     35 H1          -0.3610    -0.2640    -0.9870 hc         1 0SE       0.042867
     36 H2          -0.3610    -0.7220     0.7220 hc         1 0SE       0.042867
     37 H3          -0.3610     0.9860     0.2650 hc         1 0SE       0.042867
     38 H4           1.5330     1.3510    -1.6720 hc         1 0SE       0.042867
     39 H5           3.1070     1.1610    -0.8870 hc         1 0SE       0.042867
     40 H6           1.8420     2.1240    -0.1110 hc         1 0SE       0.042867
     41 H7           1.7540    -0.9230     1.9320 hc         1 0SE       0.060700
     42 H8           3.8540     1.0310     0.9270 hc         1 0SE       0.056200
     43 H9           3.9990    -0.7350     0.9500 hc         1 0SE       0.056200
     44 H10          3.7860    -0.7260     3.4060 h1         1 0SE       0.035200
     45 H11          5.1440     0.2910     2.8950 h1         1 0SE       0.035200
     46 H13          1.7310     0.2960     4.1340 h1         1 0SE       0.035200
     47 H14          1.5840     2.0620     4.1560 h1         1 0SE       0.035200
     48 H15          0.3590     1.0770     2.2400 hc         1 0SE       0.056200
     49 H16          1.6940     2.1070     1.6930 hc         1 0SE       0.056200
     50 H17          3.6810     0.6990     5.5570 h1         1 0SE       0.051200
     51 H18          5.1030     1.4910     4.8640 h1         1 0SE       0.051200
     52 H19          1.9350     1.9340     6.5730 ha         1 0SE       0.144000
     53 H20          1.1450     4.0830     7.4880 ha         1 0SE       0.159000
     54 H21          4.2210     9.9350     6.2910 h4         1 0SE       0.050100
     55 H22          0.9720     7.9880     8.3300 h4         1 0SE       0.050100
     56 H23          0.8080    12.9270     8.2550 hn         1 0SE       0.446800
     57 H24          1.8290    12.6800     9.6350 hn         1 0SE       0.446800
     58 H25          6.5250     8.0600     5.3610 h1         1 0SE       0.069200
     59 H26          5.5440     8.2900     3.9020 h1         1 0SE       0.069200
     60 H27          7.9180     8.5740     3.3550 h1         1 0SE       0.058450
     61 H28          8.2840     6.9790     4.0370 h1         1 0SE       0.058450
     62 H29          7.3930     5.0020     2.8760 h1         1 0SE       0.058450
     63 H30          6.4280     5.2670     1.4120 h1         1 0SE       0.058450
     64 H31          4.6550     6.3170     2.7430 h1         1 0SE       0.069200
     65 H32          5.0130     4.7060     3.3900 h1         1 0SE       0.069200
     66 H33          1.5520    -1.2620    -1.4950 ho         1 0SE       0.403000
@<TRIPOS>BOND
     1     3     2 1   
     2    34     2 1   
     3     2     1 1   
     4     2     4 1   
     5     4     5 1   
     6     4     9 1   
     7     5     6 1   
     8     6     7 1   
     9     9     8 1   
    10    23    22 ar  
    11    23    24 ar  
    12    22    21 ar  
    13    27    24 1   
    14     7     8 1   
    15     7    10 1   
    16    13    12 ar  
    17    13    14 ar  
    18    24    25 ar  
    19    12    11 ar  
    20    20    14 ar  
    21    20    19 ar  
    22    14    15 ar  
    23    21    19 1   
    24    21    26 ar  
    25    19    18 ar  
    26    11    10 1   
    27    11    16 ar  
    28    25    26 ar  
    29    15    16 ar  
    30    15    17 ar  
    31    18    17 ar  
    32    33    28 1   
    33    33    32 1   
    34    17    28 1   
    35    28    29 1   
    36    32    31 1   
    37    29    30 1   
    38    30    31 1   
    39     1    35 1   
    40     1    36 1   
    41     1    37 1   
    42     3    38 1   
    43     3    39 1   
    44     3    40 1   
    45     4    41 1   
    46     5    42 1   
    47     5    43 1   
    48     6    44 1   
    49     6    45 1   
    50     8    46 1   
    51     8    47 1   
    52     9    48 1   
    53     9    49 1   
    54    10    50 1   
    55    10    51 1   
    56    12    52 1   
    57    13    53 1   
    58    22    54 1   
    59    26    55 1   
    60    27    56 1   
    61    27    57 1   
    62    29    58 1   
    63    29    59 1   
    64    30    60 1   
    65    30    61 1   
    66    32    62 1   
    67    32    63 1   
    68    33    64 1   
    69    33    65 1   
    70    34    66 1   
@<TRIPOS>SUBSTRUCTURE
     1 0SE         1 TEMP              0 ****  ****    0 ROOT
