@<TRIPOS>MOLECULE
0SF
   59    61     1     0     0
SMALL
bcc


@<TRIPOS>ATOM
      1 C1           0.0000     0.0000     0.0000 c3         1 0SF       0.004900
      2 C2           1.5300     0.0000     0.0000 c3         1 0SF       0.022900
      3 C3           2.0320     0.0000     1.4210 ca         1 0SF      -0.049300
      4 C4           2.4650    -1.1770     2.0000 ca         1 0SF      -0.120000
      5 C5           2.9270    -1.1760     3.3080 ca         1 0SF       0.143100
      6 C6           2.9560     0.0070     4.0320 ca         1 0SF      -0.182000
      7 C7           2.5230     1.1830     3.4480 ca         1 0SF      -0.059000
      8 C8           2.0660     1.1800     2.1420 ca         1 0SF      -0.062600
      9 Cl1          1.5290     2.6600     1.4080 cl         1 0SF      -0.023400
     10 O1           3.3520    -2.3340     3.8800 os         1 0SF      -0.326400
     11 C9           3.6740    -2.3120     5.1960 ca         1 0SF       0.680600
     12 C10          4.8460    -2.9150     5.6470 ca         1 0SF      -0.424600
     13 C11          5.1350    -2.8690     6.9990 ca         1 0SF       0.517200
     14 N1           4.2950    -2.2570     7.8190 nb         1 0SF      -0.718000
     15 C12          3.1870    -1.6920     7.3620 ca         1 0SF       0.753900
     16 N2           2.8780    -1.7110     6.0740 nb         1 0SF      -0.739000
     17 N3           2.3340    -1.0630     8.2510 nh         1 0SF      -0.424300
     18 C13          1.0490    -0.5360     7.7850 c3         1 0SF       0.218100
     19 C14          0.0100    -1.6260     7.8380 ca         1 0SF      -0.089300
     20 C15         -0.7990    -1.7570     8.9520 ca         1 0SF      -0.116000
     21 C16         -1.7530    -2.7560     9.0050 ca         1 0SF      -0.055000
     22 C17         -1.9010    -3.6270     7.9430 ca         1 0SF      -0.188000
     23 C18         -1.0910    -3.4980     6.8240 ca         1 0SF       0.128100
     24 C19         -0.1390    -2.4910     6.7710 ca         1 0SF      -0.105000
     25 O2          -1.2350    -4.3550     5.7770 os         1 0SF      -0.300900
     26 C20         -2.2390    -5.3630     5.8980 c3         1 0SF       0.521400
     27 C21         -2.2520    -6.2240     4.6330 c3         1 0SF       0.384900
     28 F1          -1.0010    -6.8290     4.4690 f          1 0SF      -0.196800
     29 F2          -3.2360    -7.2120     4.7520 f          1 0SF      -0.196800
     30 F3          -1.9600    -6.1680     7.0080 f          1 0SF      -0.205300
     31 F4          -3.4900    -4.7590     6.0630 f          1 0SF      -0.205300
     32 C22          2.7150    -0.9240     9.6580 c3         1 0SF       0.159800
     33 C23          3.4740     0.3900     9.8540 c3         1 0SF       0.111100
     34 C24          3.9810     0.4780    11.2950 c3         1 0SF       0.541900
     35 F5           2.8930     0.4320    12.1750 f          1 0SF      -0.202967
     36 F6           4.8370    -0.5970    11.5540 f          1 0SF      -0.202967
     37 F7           4.6750     1.6800    11.4730 f          1 0SF      -0.202967
     38 O3           2.6000     1.4890     9.5880 oh         1 0SF      -0.565800
     39 H2          -0.3610     0.1670    -1.0080 hc         1 0SF       0.005700
     40 H3          -0.3610    -0.9560     0.3590 hc         1 0SF       0.005700
     41 H4          -0.3610     0.7890     0.6490 hc         1 0SF       0.005700
     42 H6           1.8910    -0.8850    -0.5110 hc         1 0SF       0.023200
     43 H5           1.8910     0.8840    -0.5110 hc         1 0SF       0.023200
     44 H7           2.4420    -2.1000     1.4340 ha         1 0SF       0.123000
     45 H8           3.3150     0.0090     5.0540 ha         1 0SF       0.138000
     46 H9           2.5470     2.1080     4.0110 ha         1 0SF       0.113000
     47 H10          5.5170    -3.4100     4.9550 ha         1 0SF       0.139000
     48 H11          6.0390    -3.3280     7.3820 h4         1 0SF      -0.013900
     49 H12          0.7430     0.2860     8.4210 h1         1 0SF       0.048200
     50 H13          1.1520    -0.1840     6.7660 h1         1 0SF       0.048200
     51 H14         -0.6840    -1.0750     9.7860 ha         1 0SF       0.111000
     52 H15         -2.3850    -2.8550     9.8790 ha         1 0SF       0.108000
     53 H16         -2.6470    -4.4110     7.9850 ha         1 0SF       0.133000
     54 H17          0.4950    -2.3890     5.8990 ha         1 0SF       0.140000
     55 H18         -2.4680    -5.6010     3.7740 h2         1 0SF       0.057700
     56 H20          1.8250    -0.9220    10.2750 h1         1 0SF       0.059200
     57 H19          3.3500    -1.7540     9.9440 h1         1 0SF       0.059200
     58 H1           4.3160     0.4260     9.1730 h1         1 0SF       0.045700
     59 H21          3.1080     2.2740     9.4700 ho         1 0SF       0.405000
@<TRIPOS>BOND
     1     1     2 1   
     2     1    39 1   
     3     1    40 1   
     4     1    41 1   
     5     2     3 1   
     6     2    42 1   
     7     2    43 1   
     8     3     4 ar  
     9     3     8 ar  
    10     4     5 ar  
    11     4    44 1   
    12     5     6 ar  
    13     5    10 1   
    14     6     7 ar  
    15     6    45 1   
    16     7     8 ar  
    17     7    46 1   
    18     8     9 1   
    19    10    11 1   
    20    11    12 ar  
    21    11    16 ar  
    22    12    13 ar  
    23    12    47 1   
    24    13    14 ar  
    25    13    48 1   
    26    14    15 ar  
    27    15    16 ar  
    28    15    17 1   
    29    17    18 1   
    30    17    32 1   
    31    18    19 1   
    32    18    49 1   
    33    18    50 1   
    34    19    20 ar  
    35    19    24 ar  
    36    20    21 ar  
    37    20    51 1   
    38    21    22 ar  
    39    21    52 1   
    40    22    23 ar  
    41    22    53 1   
    42    23    24 ar  
    43    23    25 1   
    44    24    54 1   
    45    25    26 1   
    46    26    27 1   
    47    26    30 1   
    48    26    31 1   
    49    27    28 1   
    50    27    29 1   
    51    27    55 1   
    52    32    33 1   
    53    32    56 1   
    54    32    57 1   
    55    33    34 1   
    56    33    38 1   
    57    33    58 1   
    58    34    35 1   
    59    34    36 1   
    60    34    37 1   
    61    38    59 1   
@<TRIPOS>SUBSTRUCTURE
     1 0SF         1 TEMP              0 ****  ****    0 ROOT
