@<TRIPOS>MOLECULE
0SF
   59    61     1     0     0
SMALL
bcc


@<TRIPOS>ATOM
      1 C1          -0.6720     0.0540     0.4440 c3         1 0SF      -0.088100
      2 C2           0.8320     0.0780     0.3010 c3         1 0SF      -0.049100
      3 C3           1.5140     0.0810     1.6250 ca         1 0SF      -0.050300
      4 C4           1.9050     1.3040     2.1860 ca         1 0SF      -0.119000
      5 C5           2.5370     1.3240     3.4310 ca         1 0SF       0.096100
      6 C6           2.8130     0.1450     4.1350 ca         1 0SF      -0.124000
      7 C7           2.4260    -1.0690     3.5780 ca         1 0SF      -0.116000
      8 C8           1.7810    -1.1010     2.3350 ca         1 0SF       0.016400
      9 Cl1          1.3320    -2.6200     1.7100 cl         1 0SF      -0.088400
     10 O1           2.7980     2.5330     4.0850 os         1 0SF      -0.363400
     11 C9           3.8130     3.3380     3.6010 ca         1 0SF       0.691600
     12 C10          4.0740     4.4890     4.3900 ca         1 0SF      -0.426600
     13 C11          5.1130     5.3060     3.9280 ca         1 0SF       0.483200
     14 N1           5.8340     5.0550     2.8240 nb         1 0SF      -0.782000
     15 C12          5.4910     3.9140     2.1000 ca         1 0SF       0.917900
     16 N2           4.4820     3.0280     2.4670 nb         1 0SF      -0.806000
     17 N3           6.1930     3.6550     0.9130 nh         1 0SF      -0.765300
     18 C13          6.1210     2.3720     0.2430 c3         1 0SF       0.261100
     19 C14          5.3480     2.4210    -1.0480 ca         1 0SF      -0.086300
     20 C15          6.0290     2.4970    -2.2690 ca         1 0SF      -0.131000
     21 C16          5.3200     2.5200    -3.4690 ca         1 0SF      -0.104000
     22 C17          3.9270     2.4730    -3.4690 ca         1 0SF      -0.171000
     23 C18          3.2560     2.4050    -2.2430 ca         1 0SF       0.082100
     24 C19          3.9530     2.3770    -1.0250 ca         1 0SF      -0.110000
     25 O2           1.8750     2.2690    -2.1290 os         1 0SF      -0.362900
     26 C20          1.0480     2.9180    -3.0770 c3         1 0SF       0.549400
     27 C21          1.4580     4.4330    -3.3650 c3         1 0SF       0.374900
     28 F1           0.3960     5.2740    -3.1660 f          1 0SF      -0.213800
     29 F2           1.7780     4.6160    -4.6850 f          1 0SF      -0.213800
     30 F3          -0.1790     2.7990    -2.4920 f          1 0SF      -0.203800
     31 F4           1.0040     2.1360    -4.1930 f          1 0SF      -0.203800
     32 C22          7.1770     4.5810     0.4250 c3         1 0SF       0.233800
     33 C23          8.5630     4.4650     1.0940 c3         1 0SF       0.091100
     34 C24          9.4730     5.6580     0.6130 c3         1 0SF       0.585900
     35 F5           9.4600     5.8890    -0.7370 f          1 0SF      -0.236300
     36 F6          10.7950     5.4550     0.9230 f          1 0SF      -0.236300
     37 F7           9.1540     6.8620     1.1830 f          1 0SF      -0.236300
     38 O3           9.1430     3.2520     0.6770 oh         1 0SF      -0.580800
     39 H2          -1.0030    -0.8700     0.9760 hc         1 0SF       0.039367
     40 H3          -1.1470     0.0730    -0.5670 hc         1 0SF       0.039367
     41 H4          -1.0280     0.9410     1.0200 hc         1 0SF       0.039367
     42 H6           1.1660    -0.8130    -0.2970 hc         1 0SF       0.063700
     43 H5           1.1360     0.9920    -0.2820 hc         1 0SF       0.063700
     44 H7           1.7130     2.2450     1.6500 ha         1 0SF       0.153000
     45 H8           3.3140     0.1870     5.1120 ha         1 0SF       0.152000
     46 H9           2.6290    -2.0070     4.1180 ha         1 0SF       0.151000
     47 H10          3.4970     4.7030     5.2930 ha         1 0SF       0.173000
     48 H11          5.3990     6.2230     4.4780 h4         1 0SF       0.033100
     49 H12          7.1830     2.0430     0.0250 h1         1 0SF       0.083700
     50 H13          5.6570     1.5920     0.9120 h1         1 0SF       0.083700
     51 H14          7.1290     2.5320    -2.2810 ha         1 0SF       0.144000
     52 H15          5.8610     2.5730    -4.4260 ha         1 0SF       0.144000
     53 H16          3.3640     2.4900    -4.4150 ha         1 0SF       0.156000
     54 H17          3.4010     2.3010    -0.0740 ha         1 0SF       0.169000
     55 H18          2.3250     4.6990    -2.6900 h2         1 0SF       0.106700
     56 H20          6.8300     5.6450     0.5650 h1         1 0SF       0.086700
     57 H19          7.3120     4.3900    -0.6810 h1         1 0SF       0.086700
     58 H1           8.4990     4.5320     2.2140 h1         1 0SF       0.093700
     59 H21          9.9780     3.1480     1.1560 ho         1 0SF       0.422000
@<TRIPOS>BOND
     1     1     2 1   
     2     1    39 1   
     3     1    40 1   
     4     1    41 1   
     5     2     3 1   
     6     2    42 1   
     7     2    43 1   
     8     3     4 ar  
     9     3     8 ar  
    10     4     5 ar  
    11     4    44 1   
    12     5     6 ar  
    13     5    10 1   
    14     6     7 ar  
    15     6    45 1   
    16     7     8 ar  
    17     7    46 1   
    18     8     9 1   
    19    10    11 1   
    20    11    12 ar  
    21    11    16 ar  
    22    12    13 ar  
    23    12    47 1   
    24    13    14 ar  
    25    13    48 1   
    26    14    15 ar  
    27    15    16 ar  
    28    15    17 1   
    29    17    18 1   
    30    17    32 1   
    31    18    19 1   
    32    18    49 1   
    33    18    50 1   
    34    19    20 ar  
    35    19    24 ar  
    36    20    21 ar  
    37    20    51 1   
    38    21    22 ar  
    39    21    52 1   
    40    22    23 ar  
    41    22    53 1   
    42    23    24 ar  
    43    23    25 1   
    44    24    54 1   
    45    25    26 1   
    46    26    27 1   
    47    26    30 1   
    48    26    31 1   
    49    27    28 1   
    50    27    29 1   
    51    27    55 1   
    52    32    33 1   
    53    32    56 1   
    54    32    57 1   
    55    33    34 1   
    56    33    38 1   
    57    33    58 1   
    58    34    35 1   
    59    34    36 1   
    60    34    37 1   
    61    38    59 1   
@<TRIPOS>SUBSTRUCTURE
     1 0SF         1 TEMP              0 ****  ****    0 ROOT
