@<TRIPOS>MOLECULE
molecule
   59    61     1     0     0
SMALL
bcc


@<TRIPOS>ATOM
      1 C1           0.0000     0.0000     0.0000 c3         1 0SF      -0.088100
      2 C2           1.5300     0.0000     0.0000 c3         1 0SF      -0.040100
      3 C3           2.0320     0.0000     1.4210 ca         1 0SF      -0.044300
      4 C4           2.4650    -1.1770     2.0000 ca         1 0SF      -0.136000
      5 C5           2.9270    -1.1760     3.3080 ca         1 0SF       0.133100
      6 C6           2.9560     0.0070     4.0320 ca         1 0SF      -0.181000
      7 C7           2.5230     1.1830     3.4480 ca         1 0SF      -0.091000
      8 C8           2.0660     1.1800     2.1420 ca         1 0SF       0.003400
      9 Cl1          1.5290     2.6600     1.4080 cl         1 0SF      -0.108400
     10 O1           3.3520    -2.3340     3.8800 os         1 0SF      -0.345400
     11 C9           3.6740    -2.3120     5.1960 ca         1 0SF       0.716600
     12 C10          4.8460    -2.9150     5.6470 ca         1 0SF      -0.436600
     13 C11          5.1350    -2.8690     6.9990 ca         1 0SF       0.518200
     14 N1           4.2950    -2.2570     7.8190 nb         1 0SF      -0.813000
     15 C12          3.1870    -1.6920     7.3620 ca         1 0SF       0.963900
     16 N2           2.8780    -1.7110     6.0740 nb         1 0SF      -0.847000
     17 N3           2.3340    -1.0630     8.2510 nh         1 0SF      -0.793300
     18 C13          1.0490    -0.5360     7.7850 c3         1 0SF       0.289100
     19 C14          0.0100    -1.6260     7.8380 ca         1 0SF      -0.089300
     20 C15         -0.7990    -1.7570     8.9520 ca         1 0SF      -0.140000
     21 C16         -1.7530    -2.7560     9.0050 ca         1 0SF      -0.096000
     22 C17         -1.9010    -3.6270     7.9430 ca         1 0SF      -0.190000
     23 C18         -1.0910    -3.4980     6.8240 ca         1 0SF       0.114100
     24 C19         -0.1390    -2.4910     6.7710 ca         1 0SF      -0.115000
     25 O2          -1.2350    -4.3550     5.7770 os         1 0SF      -0.331900
     26 C20         -2.2390    -5.3630     5.8980 c3         1 0SF       0.537400
     27 C21         -2.2520    -6.2240     4.6330 c3         1 0SF       0.399900
     28 F1          -1.0010    -6.8290     4.4690 f          1 0SF      -0.210300
     29 F2          -3.2360    -7.2120     4.7520 f          1 0SF      -0.210300
     30 F3          -1.9600    -6.1680     7.0080 f          1 0SF      -0.217300
     31 F4          -3.4900    -4.7590     6.0630 f          1 0SF      -0.217300
     32 C22          2.7150    -0.9240     9.6580 c3         1 0SF       0.250800
     33 C23          3.4740     0.3900     9.8540 c3         1 0SF       0.078100
     34 C24          3.9810     0.4780    11.2950 c3         1 0SF       0.584900
     35 F5           2.8930     0.4320    12.1750 f          1 0SF      -0.222633
     36 F6           4.8370    -0.5970    11.5540 f          1 0SF      -0.222633
     37 F7           4.6750     1.6800    11.4730 f          1 0SF      -0.222633
     38 O3           2.6000     1.4890     9.5880 oh         1 0SF      -0.584800
     39 H2          -0.3610     0.1670    -1.0080 hc         1 0SF       0.039700
     40 H3          -0.3610    -0.9560     0.3590 hc         1 0SF       0.039700
     41 H4          -0.3610     0.7890     0.6490 hc         1 0SF       0.039700
     42 H6           1.8910    -0.8850    -0.5110 hc         1 0SF       0.055700
     43 H5           1.8910     0.8840    -0.5110 hc         1 0SF       0.055700
     44 H7           2.4420    -2.1000     1.4340 ha         1 0SF       0.152000
     45 H8           3.3150     0.0090     5.0540 ha         1 0SF       0.160000
     46 H9           2.5470     2.1080     4.0110 ha         1 0SF       0.146000
     47 H10          5.5170    -3.4100     4.9550 ha         1 0SF       0.161000
     48 H11          6.0390    -3.3280     7.3820 h4         1 0SF       0.038100
     49 H12          0.7430     0.2860     8.4210 h1         1 0SF       0.078700
     50 H13          1.1520    -0.1840     6.7660 h1         1 0SF       0.078700
     51 H14         -0.6840    -1.0750     9.7860 ha         1 0SF       0.134000
     52 H15         -2.3850    -2.8550     9.8790 ha         1 0SF       0.138000
     53 H16         -2.6470    -4.4110     7.9850 ha         1 0SF       0.151000
     54 H17          0.4950    -2.3890     5.8990 ha         1 0SF       0.166000
     55 H18         -2.4680    -5.6010     3.7740 h2         1 0SF       0.100700
     56 H20          1.8250    -0.9220    10.2750 h1         1 0SF       0.088700
     57 H19          3.3500    -1.7540     9.9440 h1         1 0SF       0.088700
     58 H1           4.3160     0.4260     9.1730 h1         1 0SF       0.078700
     59 H21          3.1080     2.2740     9.4700 ho         1 0SF       0.418000
@<TRIPOS>BOND
     1    28    27 1
     2    37    34 1
     3    27    29 1
     4    27    26 1
     5    35    34 1
     6    34    36 1
     7    34    33 1
     8    30    26 1
     9    26    25 1
    10    26    31 1
    11    32    33 1
    12    32    17 1
    13    33    38 1
    14    14    13 ar
    15    14    15 ar
    16    25    23 1
    17    13    12 ar
    18    23    22 ar
    19    23    24 ar
    20    17    15 1
    21    17    18 1
    22    22    21 ar
    23    24    19 ar
    24    15    16 ar
    25    21    20 ar
    26    19    20 ar
    27    19    18 1
    28    12    11 ar
    29    16    11 ar
    30    11    10 1
    31    10     5 1
    32     4     5 ar
    33     4     3 ar
    34     2     1 1
    35     2     3 1
    36     5     6 ar
    37     3     8 ar
    38     6     7 ar
    39     8     7 ar
    40     8     9 1
    41     1    39 1
    42     1    40 1
    43     1    41 1
    44     2    42 1
    45     2    43 1
    46     4    44 1
    47     6    45 1
    48     7    46 1
    49    12    47 1
    50    13    48 1
    51    18    49 1
    52    18    50 1
    53    20    51 1
    54    21    52 1
    55    22    53 1
    56    24    54 1
    57    27    55 1
    58    32    56 1
    59    32    57 1
    60    33    58 1
    61    38    59 1
@<TRIPOS>SUBSTRUCTURE
     1 0SF         1 TEMP              0 ****  ****    0 ROOT
