@<TRIPOS>MOLECULE
molecule
  129   129     1     0     0
SMALL
bcc


@<TRIPOS>ATOM
      1 C18          0.0000     0.0000     0.0000 c3         1 0SH      -0.092100
      2 C17          1.5300     0.0000     0.0000 c3         1 0SH      -0.084400
      3 C16          2.0390     0.0000     1.4430 c3         1 0SH      -0.081400
      4 C15          3.5690     0.0010     1.4430 c3         1 0SH      -0.082400
      5 C14          4.0780     0.0010     2.8860 c3         1 0SH      -0.082400
      6 C13          5.6080     0.0020     2.8870 c3         1 0SH      -0.082400
      7 C12          6.1190     0.0020     4.3290 c3         1 0SH      -0.082400
      8 C11          7.6480     0.0020     4.3310 c3         1 0SH      -0.081400
      9 C10          8.1580     0.0030     5.7730 c3         1 0SH      -0.081400
     10 C9           9.6870     0.0030     5.7740 c3         1 0SH      -0.081400
     11 C8          10.1970     0.0050     7.2160 c3         1 0SH      -0.082400
     12 C7          11.7270     0.0040     7.2170 c3         1 0SH      -0.080400
     13 C6          12.2360     0.0060     8.6600 c3         1 0SH      -0.083400
     14 C5          13.7660     0.0050     8.6610 c3         1 0SH      -0.108400
     15 C4          14.2760     0.0070    10.1030 c3         1 0SH       0.127100
     16 O4          13.8980    -1.2140    10.7430 oh         1 0SH      -0.612800
     17 C3          15.8010     0.1330    10.1050 c3         1 0SH       0.138100
     18 O3          16.1790     1.3520     9.4660 oh         1 0SH      -0.599800
     19 C2          16.3100     0.1330    11.5480 c3         1 0SH       0.123700
     20 C1          17.8170     0.3960    11.5570 c3         1 0SH       0.116400
     21 O1A         18.4740    -0.5720    10.7350 os         1 0SH      -0.454600
     22 C1A         19.8940    -0.4150    10.6740 c3         1 0SH       0.328900
     23 O6A         20.4660    -0.7630    11.9350 os         1 0SH      -0.409600
     24 C5M         20.1870    -2.1000    12.3550 c3         1 0SH       0.142100
     25 C6A         20.8230    -2.3490    13.7240 c3         1 0SH       0.148400
     26 O5A         20.1990    -1.5100    14.6990 oh         1 0SH      -0.596800
     27 C4A         20.7670    -3.0840    11.3350 c3         1 0SH       0.098100
     28 O4A         22.1880    -2.9360    11.2830 oh         1 0SH      -0.586800
     29 C3A         20.1710    -2.7890     9.9550 c3         1 0SH       0.128100
     30 O3A         20.7620    -3.6540     8.9840 oh         1 0SH      -0.596800
     31 C2A         20.4620    -1.3300     9.5870 c3         1 0SH       0.133100
     32 O2A         19.8480    -1.0230     8.3340 oh         1 0SH      -0.595800
     33 N2          16.0380    -1.1690    12.1630 ns         1 0SH      -0.566900
     34 CAA         15.9180    -1.2690    13.5020 c          1 0SH       0.658100
     35 OAA         16.0340    -0.2820    14.1970 o          1 0SH      -0.616100
     36 CAB         15.6370    -2.6080    14.1340 c3         1 0SH      -0.154400
     37 CAC         15.5480    -2.4460    15.6530 c3         1 0SH      -0.067400
     38 CAD         15.2640    -3.8050    16.2950 c3         1 0SH      -0.085400
     39 CAE         15.1750    -3.6430    17.8140 c3         1 0SH      -0.080400
     40 CAF         14.8910    -5.0030    18.4560 c3         1 0SH      -0.082400
     41 CAG         14.8020    -4.8410    19.9750 c3         1 0SH      -0.081400
     42 CAH         14.5170    -6.1990    20.6170 c3         1 0SH      -0.082400
     43 CAI         14.4280    -6.0370    22.1360 c3         1 0SH      -0.082400
     44 CAJ         14.1450    -7.3970    22.7780 c3         1 0SH      -0.082400
     45 CAK         14.0550    -7.2350    24.2970 c3         1 0SH      -0.082400
     46 CAL         13.7710    -8.5940    24.9390 c3         1 0SH      -0.081400
     47 CAM         13.6810    -8.4310    26.4580 c3         1 0SH      -0.082400
     48 CAN         13.3980    -9.7910    27.1000 c3         1 0SH      -0.081400
     49 CAO         13.3080    -9.6290    28.6190 c3         1 0SH      -0.084400
     50 CAP         13.0240   -10.9880    29.2610 c3         1 0SH      -0.092100
     51 H1          -0.3610    -0.8850     0.5100 hc         1 0SH       0.032367
     52 H2          -0.3610     0.8840     0.5110 hc         1 0SH       0.032367
     53 H3          -0.3610     0.0000    -1.0210 hc         1 0SH       0.032367
     54 H4           1.8910     0.8850    -0.5110 hc         1 0SH       0.039700
     55 H5           1.8910    -0.8850    -0.5110 hc         1 0SH       0.039700
     56 H6           1.6790    -0.8850     1.9530 hc         1 0SH       0.040700
     57 H7           1.6770     0.8840     1.9540 hc         1 0SH       0.040700
     58 H8           3.9300     0.8860     0.9330 hc         1 0SH       0.040700
     59 H9           3.9310    -0.8830     0.9330 hc         1 0SH       0.040700
     60 H10          3.7170     0.8850     3.3970 hc         1 0SH       0.040700
     61 H11          3.7180    -0.8840     3.3970 hc         1 0SH       0.040700
     62 H12          5.9700    -0.8820     2.3760 hc         1 0SH       0.040700
     63 H13          5.9690     0.8870     2.3760 hc         1 0SH       0.040700
     64 H14          5.7570    -0.8820     4.8400 hc         1 0SH       0.040700
     65 H15          5.7570     0.8870     4.8400 hc         1 0SH       0.040700
     66 H16          8.0100    -0.8820     3.8210 hc         1 0SH       0.040700
     67 H17          8.0090     0.8870     3.8200 hc         1 0SH       0.040700
     68 H18          7.7960    -0.8810     6.2830 hc         1 0SH       0.041200
     69 H19          7.7960     0.8880     6.2830 hc         1 0SH       0.041200
     70 H20         10.0480     0.8870     5.2630 hc         1 0SH       0.041700
     71 H21         10.0490    -0.8820     5.2650 hc         1 0SH       0.041700
     72 H22          9.8350    -0.8790     7.7280 hc         1 0SH       0.041200
     73 H23          9.8360     0.8900     7.7260 hc         1 0SH       0.041200
     74 H24         12.0890    -0.8810     6.7080 hc         1 0SH       0.042700
     75 H25         12.0890     0.8880     6.7060 hc         1 0SH       0.042700
     76 H26         11.8750     0.8910     9.1690 hc         1 0SH       0.041200
     77 H28         14.1280     0.8890     8.1490 hc         1 0SH       0.053700
     78 H30         13.8440     0.8440    10.6370 h1         1 0SH       0.048700
     79 H31         13.0780    -1.0920    11.1920 ho         1 0SH       0.408000
     80 H32         16.2330    -0.7040     9.5700 h1         1 0SH       0.061700
     81 H33         16.5570     1.1610     8.6230 ho         1 0SH       0.414000
     82 H34         15.8050     0.9100    12.1090 h1         1 0SH       0.094700
     83 H35         18.0130     1.3890    11.1720 h1         1 0SH       0.055700
     84 H36         18.1910     0.3220    12.5710 h1         1 0SH       0.055700
     85 H37         20.1380     0.6140    10.4400 h2         1 0SH       0.082700
     86 H38         19.1140    -2.2400    12.4190 h1         1 0SH       0.067700
     87 H39         20.6870    -3.3880    14.0010 h1         1 0SH       0.033700
     88 H40         21.8810    -2.1230    13.6770 h1         1 0SH       0.033700
     89 H41         20.7440    -1.4610    15.4660 ho         1 0SH       0.404000
     90 H42         20.5140    -4.0960    11.6280 h1         1 0SH       0.039700
     91 H43         22.5970    -3.7700    11.4400 ho         1 0SH       0.403000
     92 H44         19.0990    -2.9470     9.9840 h1         1 0SH       0.061700
     93 H45         20.1430    -4.3220     8.7400 ho         1 0SH       0.403000
     94 H46         21.5330    -1.1840     9.5160 h1         1 0SH       0.080700
     95 H47         20.5080    -0.7470     7.7200 ho         1 0SH       0.407000
     96 H48         15.9710    -1.9880    11.5920 hn         1 0SH       0.325500
     97 H49         16.4360    -3.2970    13.8900 hc         1 0SH       0.056700
     98 H50         14.6980    -2.9950    13.7570 hc         1 0SH       0.056700
     99 H51         14.7480    -1.7570    15.8970 hc         1 0SH       0.059700
    100 H52         16.4870    -2.0570    16.0300 hc         1 0SH       0.059700
    101 H53         16.0640    -4.4940    16.0520 hc         1 0SH       0.036700
    102 H54         14.3250    -4.1940    15.9180 hc         1 0SH       0.036700
    103 H55         16.1130    -3.2540    18.1910 hc         1 0SH       0.044200
    104 H56         14.3750    -2.9540    18.0570 hc         1 0SH       0.044200
    105 H57         13.9520    -5.3920    18.0790 hc         1 0SH       0.039700
    106 H58         15.6910    -5.6910    18.2130 hc         1 0SH       0.039700
    107 H59         14.0020    -4.1520    20.2180 hc         1 0SH       0.041700
    108 H60         15.7400    -4.4520    20.3520 hc         1 0SH       0.041700
    109 H61         13.5790    -6.5880    20.2400 hc         1 0SH       0.040200
    110 H62         15.3170    -6.8880    20.3740 hc         1 0SH       0.040200
    111 H63         13.6270    -5.3490    22.3790 hc         1 0SH       0.041700
    112 H64         15.3660    -5.6480    22.5130 hc         1 0SH       0.041700
    113 H65         13.2070    -7.7860    22.4010 hc         1 0SH       0.040700
    114 H66         14.9450    -8.0850    22.5350 hc         1 0SH       0.040700
    115 H67         13.2540    -6.5460    24.5400 hc         1 0SH       0.040700
    116 H68         14.9920    -6.8450    24.6750 hc         1 0SH       0.040700
    117 H69         14.5720    -9.2820    24.6960 hc         1 0SH       0.040700
    118 H70         12.8330    -8.9830    24.5610 hc         1 0SH       0.040700
    119 H71         14.6190    -8.0420    26.8360 hc         1 0SH       0.040700
    120 H72         12.8810    -7.7430    26.7010 hc         1 0SH       0.040700
    121 H73         14.1980   -10.4790    26.8570 hc         1 0SH       0.040700
    122 H74         12.4600   -10.1800    26.7220 hc         1 0SH       0.040700
    123 H75         12.5070    -8.9400    28.8620 hc         1 0SH       0.039700
    124 H76         14.2460    -9.2390    28.9970 hc         1 0SH       0.039700
    125 H77         12.0870   -11.3770    28.8830 hc         1 0SH       0.032367
    126 H78         12.9600   -10.8730    30.3360 hc         1 0SH       0.032367
    127 H79         13.8250   -11.6760    29.0180 hc         1 0SH       0.032367
    128 H27         11.8740    -0.8780     9.1710 hc         1 0SH       0.041200
    129 H29         14.1280    -0.8800     8.1510 hc         1 0SH       0.053700
@<TRIPOS>BOND
     1    28    27 1   
     2    30    29 1   
     3    27    29 1   
     4    27    24 1   
     5    29    31 1   
     6    31    32 1   
     7    31    22 1   
     8    25    24 1   
     9    25    26 1   
    10    24    23 1   
    11    23    22 1   
    12    22    21 1   
    13    21    20 1   
    14    18    17 1   
    15    20    19 1   
    16    17    19 1   
    17    17    15 1   
    18    19    33 1   
    19    15    16 1   
    20    15    14 1   
    21    33    34 1   
    22    35    34 2   
    23    34    36 1   
    24    14    13 1   
    25    36    37 1   
    26    13    12 1   
    27    12    11 1   
    28    37    38 1   
    29    11    10 1   
    30     1     2 1   
    31    38    39 1   
    32     3     2 1   
    33     3     4 1   
    34    10     9 1   
    35    39    40 1   
    36     4     5 1   
    37     9     8 1   
    38     6     5 1   
    39     6     7 1   
    40     8     7 1   
    41    40    41 1   
    42    41    42 1   
    43    42    43 1   
    44    43    44 1   
    45    44    45 1   
    46    46    45 1   
    47    46    47 1   
    48    48    47 1   
    49    48    49 1   
    50    50    49 1   
    51     1    51 1   
    52     1    52 1   
    53     1    53 1   
    54     2    54 1   
    55     2    55 1   
    56     3    56 1   
    57     3    57 1   
    58     4    58 1   
    59     4    59 1   
    60     5    60 1   
    61     5    61 1   
    62     6    62 1   
    63     6    63 1   
    64     7    64 1   
    65     7    65 1   
    66     8    66 1   
    67     8    67 1   
    68     9    68 1   
    69     9    69 1   
    70    10    70 1   
    71    10    71 1   
    72    11    72 1   
    73    11    73 1   
    74    12    74 1   
    75    12    75 1   
    76    13    76 1   
    77    14    77 1   
    78    15    78 1   
    79    16    79 1   
    80    17    80 1   
    81    18    81 1   
    82    19    82 1   
    83    20    83 1   
    84    20    84 1   
    85    22    85 1   
    86    24    86 1   
    87    25    87 1   
    88    25    88 1   
    89    26    89 1   
    90    27    90 1   
    91    28    91 1   
    92    29    92 1   
    93    30    93 1   
    94    31    94 1   
    95    32    95 1   
    96    33    96 1   
    97    36    97 1   
    98    36    98 1   
    99    37    99 1   
   100    37   100 1   
   101    38   101 1   
   102    38   102 1   
   103    39   103 1   
   104    39   104 1   
   105    40   105 1   
   106    40   106 1   
   107    41   107 1   
   108    41   108 1   
   109    42   109 1   
   110    42   110 1   
   111    43   111 1   
   112    43   112 1   
   113    44   113 1   
   114    44   114 1   
   115    45   115 1   
   116    45   116 1   
   117    46   117 1   
   118    46   118 1   
   119    47   119 1   
   120    47   120 1   
   121    48   121 1   
   122    48   122 1   
   123    49   123 1   
   124    49   124 1   
   125    50   125 1   
   126    50   126 1   
   127    50   127 1   
   128    13   128 1   
   129    14   129 1   
@<TRIPOS>SUBSTRUCTURE
     1 0SH         1 TEMP              0 ****  ****    0 ROOT
