@<TRIPOS>MOLECULE
0SH
  130   130     1     0     0
SMALL
bcc


@<TRIPOS>ATOM
      1 C18          4.9260     2.0970    -2.0860 c3         1 0SH      -0.093100
      2 C17          4.4640     1.3560    -0.8580 c3         1 0SH      -0.080400
      3 C16          3.8810     0.0040    -1.2120 c3         1 0SH      -0.078400
      4 C15          3.3860    -0.7510     0.0030 c3         1 0SH      -0.077400
      5 C14          4.5170    -1.3580     0.8070 c3         1 0SH      -0.079400
      6 C13          3.9910    -2.1230     2.0020 c3         1 0SH      -0.078400
      7 C12          5.1200    -2.7310     2.8060 c3         1 0SH      -0.079400
      8 C11          4.5940    -3.4950     4.0020 c3         1 0SH      -0.079400
      9 C10          5.7250    -4.1030     4.8040 c3         1 0SH      -0.079400
     10 C9           5.2330    -4.8530     6.0240 c3         1 0SH      -0.077400
     11 C8           4.6420    -6.2020     5.6710 c3         1 0SH      -0.079400
     12 C7           4.1750    -6.9340     6.9110 c3         1 0SH      -0.079400
     13 C6           3.5820    -8.2820     6.5590 c3         1 0SH      -0.081400
     14 C5           3.1130    -9.0090     7.8010 c3         1 0SH      -0.117400
     15 C4           2.5230   -10.3730     7.4670 c3         1 0SH       0.139100
     16 O4           3.5320   -11.3350     7.1730 oh         1 0SH      -0.669800
     17 C3           1.7400   -10.9350     8.6750 c3         1 0SH       0.145100
     18 O3           0.6800   -10.0310     8.9000 oh         1 0SH      -0.569800
     19 C2           1.1400   -12.3390     8.3650 c3         1 0SH       0.070500
     20 C1          -0.0960   -12.6010     9.2490 c3         1 0SH       0.110400
     21 O1A          0.2340   -12.3500    10.6080 os         1 0SH      -0.452600
     22 C1A          0.1900   -13.4760    11.4690 c3         1 0SH       0.337900
     23 O6A          1.5070   -13.9950    11.4150 os         1 0SH      -0.469600
     24 C5M          2.5150   -13.1750    12.0250 c3         1 0SH       0.078100
     25 C6A          3.8150   -13.9670    11.8500 c3         1 0SH       0.131400
     26 O5A          3.7510   -14.7050    10.6410 oh         1 0SH      -0.633800
     27 C4A          2.1970   -12.8350    13.4850 c3         1 0SH       0.088100
     28 O4A          2.1010   -13.9970    14.2910 oh         1 0SH      -0.591800
     29 C3A          0.8220   -12.1450    13.5440 c3         1 0SH       0.110100
     30 O3A          0.4460   -11.8530    14.8700 oh         1 0SH      -0.579800
     31 C2A         -0.2340   -13.0430    12.8820 c3         1 0SH       0.105100
     32 O2A         -1.4770   -12.3850    12.7520 oh         1 0SH      -0.583800
     33 N2           2.1690   -13.4190     8.5100 ny         1 0SH      -0.682800
     34 CAA          1.8810   -14.6640     7.7110 c          1 0SH       0.555100
     35 OAA          0.7680   -14.7760     7.2170 o          1 0SH      -0.434100
     36 CAB          3.0120   -15.6510     7.6130 c3         1 0SH      -0.159400
     37 CAC          3.7290   -15.5320     6.2810 c3         1 0SH      -0.087400
     38 CAD          4.6010   -14.2990     6.1990 c3         1 0SH      -0.095400
     39 CAE          5.3940   -14.2760     4.9090 c3         1 0SH      -0.079400
     40 CAF          6.2440   -13.0260     4.8210 c3         1 0SH      -0.075400
     41 CAG          6.9770   -12.9550     3.4980 c3         1 0SH      -0.081400
     42 CAH          7.8390   -11.7130     3.4160 c3         1 0SH      -0.076400
     43 CAI          8.5720   -11.6080     2.0950 c3         1 0SH      -0.080400
     44 CAJ          9.7600   -12.5440     2.0150 c3         1 0SH      -0.079400
     45 CAK         10.4860   -12.3910     0.6950 c3         1 0SH      -0.078400
     46 CAL         11.6660   -13.3320     0.5730 c3         1 0SH      -0.078400
     47 CAM         12.8610   -12.8720     1.3810 c3         1 0SH      -0.079400
     48 CAN         14.0300   -13.8190     1.2160 c3         1 0SH      -0.078400
     49 CAO         15.2470   -13.3770     2.0020 c3         1 0SH      -0.080400
     50 CAP         15.1140   -13.6420     3.4790 c3         1 0SH      -0.092100
     51 H1           5.3520     3.0890    -1.8040 hc         1 0SH       0.033700
     52 H2           5.7130     1.5150    -2.6250 hc         1 0SH       0.033700
     53 H3           4.0740     2.2660    -2.7890 hc         1 0SH       0.033700
     54 H4           5.3280     1.2210    -0.1540 hc         1 0SH       0.038200
     55 H5           3.6920     1.9670    -0.3190 hc         1 0SH       0.038200
     56 H6           3.0250     0.1520    -1.9220 hc         1 0SH       0.040200
     57 H7           4.6540    -0.6070    -1.7490 hc         1 0SH       0.040200
     58 H8           2.7880    -0.0640     0.6570 hc         1 0SH       0.038200
     59 H9           2.6970    -1.5710    -0.3330 hc         1 0SH       0.038200
     60 H10          5.1160    -2.0460     0.1540 hc         1 0SH       0.041200
     61 H11          5.2100    -0.5470     1.1560 hc         1 0SH       0.041200
     62 H12          3.3920    -1.4350     2.6550 hc         1 0SH       0.038700
     63 H13          3.2980    -2.9340     1.6540 hc         1 0SH       0.038700
     64 H14          5.8120    -1.9190     3.1540 hc         1 0SH       0.041700
     65 H15          5.7190    -3.4180     2.1530 hc         1 0SH       0.041700
     66 H16          3.8980    -4.3030     3.6530 hc         1 0SH       0.038700
     67 H17          3.9970    -2.8050     4.6550 hc         1 0SH       0.038700
     68 H18          6.4170    -3.2850     5.1370 hc         1 0SH       0.043200
     69 H19          6.3200    -4.7940     4.1500 hc         1 0SH       0.043200
     70 H20          6.0920    -5.0040     6.7310 hc         1 0SH       0.041200
     71 H21          4.4650    -4.2370     6.5610 hc         1 0SH       0.041200
     72 H22          3.7780    -6.0640     4.9680 hc         1 0SH       0.043200
     73 H23          5.4100    -6.8210     5.1350 hc         1 0SH       0.043200
     74 H24          5.0380    -7.0730     7.6140 hc         1 0SH       0.045700
     75 H25          3.4070    -6.3150     7.4470 hc         1 0SH       0.045700
     76 H26          4.3510    -8.8960     6.0190 hc         1 0SH       0.042200
     77 H28          3.9680    -9.1380     8.5150 hc         1 0SH       0.069200
     78 H30          1.8320   -10.2930     6.5800 h1         1 0SH       0.073700
     79 H31          4.2200   -10.8970     6.6560 ho         1 0SH       0.448000
     80 H32          2.4130   -10.9960     9.5750 h1         1 0SH       0.053700
     81 H33          0.3930   -10.1410     9.8190 ho         1 0SH       0.437000
     82 H34          0.7930   -12.3450     7.2870 hx         1 0SH       0.126700
     83 H35         -0.4990   -13.6330     9.0810 h1         1 0SH       0.096700
     84 H36         -0.8850   -11.8430     8.9770 h1         1 0SH       0.096700
     85 H37         -0.4720   -14.3030    11.0870 h2         1 0SH       0.106700
     86 H38          2.5680   -12.2070    11.4490 h1         1 0SH       0.050700
     87 H39          3.9840   -14.6490    12.7230 h1         1 0SH       0.073200
     88 H40          4.6850   -13.2680    11.7320 h1         1 0SH       0.073200
     89 H41          3.2480   -15.5090    10.8320 ho         1 0SH       0.426000
     90 H42          2.9850   -12.1360    13.8800 h1         1 0SH       0.074700
     91 H43          2.9640   -14.1440    14.6970 ho         1 0SH       0.421000
     92 H44          0.8650   -11.1460    13.0260 h1         1 0SH       0.100700
     93 H45          0.5190   -12.6710    15.3840 ho         1 0SH       0.426000
     94 H46         -0.3600   -13.9810    13.4980 h1         1 0SH       0.080700
     95 H47         -1.6360   -11.9220    13.5890 ho         1 0SH       0.438000
     96 H48          3.0890   -13.0600     8.2060 hn         1 0SH       0.486800
     97 H49          2.5500   -16.6760     7.6970 hc         1 0SH       0.105700
     98 H50          3.7420   -15.5290     8.4590 hc         1 0SH       0.105700
     99 H51          4.3680   -16.4490     6.1570 hc         1 0SH       0.079200
    100 H52          2.9820   -15.5340     5.4430 hc         1 0SH       0.079200
    101 H53          5.3060   -14.2710     7.0710 hc         1 0SH       0.040700
    102 H54          3.9640   -13.3750     6.2500 hc         1 0SH       0.040700
    103 H55          4.6920   -14.3180     4.0340 hc         1 0SH       0.053700
    104 H56          6.0510   -15.1830     4.8510 hc         1 0SH       0.053700
    105 H57          6.9850   -13.0150     5.6630 hc         1 0SH       0.033700
    106 H58          5.5930   -12.1190     4.9410 hc         1 0SH       0.033700
    107 H59          6.2360   -12.9560     2.6560 hc         1 0SH       0.047700
    108 H60          7.6180   -13.8680     3.3760 hc         1 0SH       0.047700
    109 H61          8.5800   -11.7140     4.2590 hc         1 0SH       0.037200
    110 H62          7.1890   -10.8070     3.5460 hc         1 0SH       0.037200
    111 H63          7.8650   -11.8250     1.2520 hc         1 0SH       0.043700
    112 H64          8.9300   -10.5520     1.9630 hc         1 0SH       0.043700
    113 H65         10.4650   -12.3290     2.8610 hc         1 0SH       0.039200
    114 H66          9.4150   -13.6050     2.1330 hc         1 0SH       0.039200
    115 H67          9.7680   -12.5960    -0.1430 hc         1 0SH       0.041200
    116 H68         10.8360   -11.3310     0.5800 hc         1 0SH       0.041200
    117 H69         11.3640   -14.3620     0.9020 hc         1 0SH       0.041200
    118 H70         11.9620   -13.4040    -0.5070 hc         1 0SH       0.041200
    119 H71         12.5810   -12.8050     2.4660 hc         1 0SH       0.039200
    120 H72         13.1620   -11.8420     1.0530 hc         1 0SH       0.039200
    121 H73         14.3000   -13.8800     0.1280 hc         1 0SH       0.039700
    122 H74         13.7270   -14.8500     1.5400 hc         1 0SH       0.039700
    123 H75         15.4260   -12.2830     1.8310 hc         1 0SH       0.041200
    124 H76         16.1470   -13.9240     1.6110 hc         1 0SH       0.041200
    125 H77         14.9530   -14.7300     3.6730 hc         1 0SH       0.031367
    126 H78         16.0420   -13.3230     4.0140 hc         1 0SH       0.031367
    127 H79         14.2510   -13.0780     3.9090 hc         1 0SH       0.031367
    128 H27          2.7190    -8.1400     5.8560 hc         1 0SH       0.042200
    129 H29          2.3240    -8.3970     8.3150 hc         1 0SH       0.069200
    130 H231         2.2490   -13.6880     9.5110 hn         1 0SH       0.486800
@<TRIPOS>BOND
     1     1     2 1   
     2     1    51 1   
     3     1    52 1   
     4     1    53 1   
     5     2     3 1   
     6     2    54 1   
     7     2    55 1   
     8     3     4 1   
     9     3    56 1   
    10     3    57 1   
    11     4     5 1   
    12     4    58 1   
    13     4    59 1   
    14     5     6 1   
    15     5    60 1   
    16     5    61 1   
    17     6     7 1   
    18     6    62 1   
    19     6    63 1   
    20     7     8 1   
    21     7    64 1   
    22     7    65 1   
    23     8     9 1   
    24     8    66 1   
    25     8    67 1   
    26     9    10 1   
    27     9    68 1   
    28     9    69 1   
    29    10    11 1   
    30    10    70 1   
    31    10    71 1   
    32    11    12 1   
    33    11    72 1   
    34    11    73 1   
    35    12    13 1   
    36    12    74 1   
    37    12    75 1   
    38    13    14 1   
    39    13    76 1   
    40    13   128 1   
    41    14    15 1   
    42    14    77 1   
    43    14   129 1   
    44    15    16 1   
    45    15    17 1   
    46    15    78 1   
    47    16    79 1   
    48    17    18 1   
    49    17    19 1   
    50    17    80 1   
    51    18    81 1   
    52    19    20 1   
    53    19    33 1   
    54    19    82 1   
    55    20    21 1   
    56    20    83 1   
    57    20    84 1   
    58    21    22 1   
    59    22    23 1   
    60    22    31 1   
    61    22    85 1   
    62    23    24 1   
    63    24    25 1   
    64    24    27 1   
    65    24    86 1   
    66    25    26 1   
    67    25    87 1   
    68    25    88 1   
    69    26    89 1   
    70    27    28 1   
    71    27    29 1   
    72    27    90 1   
    73    28    91 1   
    74    29    30 1   
    75    29    31 1   
    76    29    92 1   
    77    30    93 1   
    78    31    32 1   
    79    31    94 1   
    80    32    95 1   
    81    33    34 1   
    82    33    96 1   
    83    33   130 1   
    84    34    35 2   
    85    34    36 1   
    86    36    37 1   
    87    36    97 1   
    88    36    98 1   
    89    37    38 1   
    90    37    99 1   
    91    37   100 1   
    92    38    39 1   
    93    38   101 1   
    94    38   102 1   
    95    39    40 1   
    96    39   103 1   
    97    39   104 1   
    98    40    41 1   
    99    40   105 1   
   100    40   106 1   
   101    41    42 1   
   102    41   107 1   
   103    41   108 1   
   104    42    43 1   
   105    42   109 1   
   106    42   110 1   
   107    43    44 1   
   108    43   111 1   
   109    43   112 1   
   110    44    45 1   
   111    44   113 1   
   112    44   114 1   
   113    45    46 1   
   114    45   115 1   
   115    45   116 1   
   116    46    47 1   
   117    46   117 1   
   118    46   118 1   
   119    47    48 1   
   120    47   119 1   
   121    47   120 1   
   122    48    49 1   
   123    48   121 1   
   124    48   122 1   
   125    49    50 1   
   126    49   123 1   
   127    49   124 1   
   128    50   125 1   
   129    50   126 1   
   130    50   127 1   
@<TRIPOS>SUBSTRUCTURE
     1 0SH         1 TEMP              0 ****  ****    0 ROOT
