@<TRIPOS>MOLECULE
0SH
  129   129     1     0     0
SMALL
bcc


@<TRIPOS>ATOM
      1 C18          0.0000     0.0000     0.0000 c3         1 0SH       0.005900
      2 C17          1.5300     0.0000     0.0000 c3         1 0SH      -0.028400
      3 C16          2.0390     0.0000     1.4430 c3         1 0SH      -0.030400
      4 C15          3.5690     0.0010     1.4430 c3         1 0SH      -0.029400
      5 C14          4.0780     0.0010     2.8860 c3         1 0SH      -0.029400
      6 C13          5.6080     0.0020     2.8870 c3         1 0SH      -0.029400
      7 C12          6.1190     0.0020     4.3290 c3         1 0SH      -0.029400
      8 C11          7.6480     0.0020     4.3310 c3         1 0SH      -0.029400
      9 C10          8.1580     0.0030     5.7730 c3         1 0SH      -0.029400
     10 C9           9.6870     0.0030     5.7740 c3         1 0SH      -0.028400
     11 C8          10.1970     0.0050     7.2160 c3         1 0SH      -0.029400
     12 C7          11.7270     0.0040     7.2170 c3         1 0SH      -0.027400
     13 C6          12.2360     0.0060     8.6600 c3         1 0SH      -0.029400
     14 C5          13.7660     0.0050     8.6610 c3         1 0SH      -0.062400
     15 C4          14.2760     0.0070    10.1030 c3         1 0SH       0.164100
     16 O4          13.8980    -1.2140    10.7430 oh         1 0SH      -0.597800
     17 C3          15.8010     0.1330    10.1050 c3         1 0SH       0.172100
     18 O3          16.1790     1.3520     9.4660 oh         1 0SH      -0.577800
     19 C2          16.3100     0.1330    11.5480 c3         1 0SH       0.008700
     20 C1          17.8170     0.3960    11.5570 c3         1 0SH       0.183400
     21 O1A         18.4740    -0.5720    10.7350 os         1 0SH      -0.440600
     22 C1A         19.8940    -0.4150    10.6740 c3         1 0SH       0.379900
     23 O6A         20.4660    -0.7630    11.9350 os         1 0SH      -0.396600
     24 C5M         20.1870    -2.1000    12.3550 c3         1 0SH       0.160100
     25 C6A         20.8230    -2.3490    13.7240 c3         1 0SH       0.222400
     26 O5A         20.1990    -1.5100    14.6990 oh         1 0SH      -0.579800
     27 C4A         20.7670    -3.0840    11.3350 c3         1 0SH       0.137100
     28 O4A         22.1880    -2.9360    11.2830 oh         1 0SH      -0.565800
     29 C3A         20.1710    -2.7890     9.9550 c3         1 0SH       0.159100
     30 O3A         20.7620    -3.6540     8.9840 oh         1 0SH      -0.576800
     31 C2A         20.4620    -1.3300     9.5870 c3         1 0SH       0.153100
     32 O2A         19.8480    -1.0230     8.3340 oh         1 0SH      -0.576800
     33 N2          16.0380    -1.1690    12.1630 ns         1 0SH      -0.174900
     34 CAA         15.9180    -1.2690    13.5020 c          1 0SH       0.570100
     35 OAA         16.0340    -0.2820    14.1970 o          1 0SH      -0.655100
     36 CAB         15.6370    -2.6080    14.1340 c3         1 0SH      -0.095400
     37 CAC         15.5480    -2.4460    15.6530 c3         1 0SH      -0.016400
     38 CAD         15.2640    -3.8050    16.2950 c3         1 0SH      -0.032400
     39 CAE         15.1750    -3.6430    17.8140 c3         1 0SH      -0.027400
     40 CAF         14.8910    -5.0030    18.4560 c3         1 0SH      -0.029400
     41 CAG         14.8020    -4.8410    19.9750 c3         1 0SH      -0.029400
     42 CAH         14.5170    -6.1990    20.6170 c3         1 0SH      -0.029400
     43 CAI         14.4280    -6.0370    22.1360 c3         1 0SH      -0.029400
     44 CAJ         14.1450    -7.3970    22.7780 c3         1 0SH      -0.029400
     45 CAK         14.0550    -7.2350    24.2970 c3         1 0SH      -0.029400
     46 CAL         13.7710    -8.5940    24.9390 c3         1 0SH      -0.029400
     47 CAM         13.6810    -8.4310    26.4580 c3         1 0SH      -0.029400
     48 CAN         13.3980    -9.7910    27.1000 c3         1 0SH      -0.030400
     49 CAO         13.3080    -9.6290    28.6190 c3         1 0SH      -0.028400
     50 CAP         13.0240   -10.9880    29.2610 c3         1 0SH       0.006900
     51 H1          -0.3610    -0.8850     0.5100 hc         1 0SH       0.000033
     52 H2          -0.3610     0.8840     0.5110 hc         1 0SH       0.000033
     53 H3          -0.3610     0.0000    -1.0210 hc         1 0SH       0.000033
     54 H4           1.8910     0.8850    -0.5110 hc         1 0SH       0.011700
     55 H5           1.8910    -0.8850    -0.5110 hc         1 0SH       0.011700
     56 H6           1.6790    -0.8850     1.9530 hc         1 0SH       0.014700
     57 H7           1.6770     0.8840     1.9540 hc         1 0SH       0.014700
     58 H8           3.9300     0.8860     0.9330 hc         1 0SH       0.014700
     59 H9           3.9310    -0.8830     0.9330 hc         1 0SH       0.014700
     60 H10          3.7170     0.8850     3.3970 hc         1 0SH       0.014700
     61 H11          3.7180    -0.8840     3.3970 hc         1 0SH       0.014700
     62 H12          5.9700    -0.8820     2.3760 hc         1 0SH       0.014700
     63 H13          5.9690     0.8870     2.3760 hc         1 0SH       0.014700
     64 H14          5.7570    -0.8820     4.8400 hc         1 0SH       0.014700
     65 H15          5.7570     0.8870     4.8400 hc         1 0SH       0.014700
     66 H16          8.0100    -0.8820     3.8210 hc         1 0SH       0.014700
     67 H17          8.0090     0.8870     3.8200 hc         1 0SH       0.014700
     68 H18          7.7960    -0.8810     6.2830 hc         1 0SH       0.014700
     69 H19          7.7960     0.8880     6.2830 hc         1 0SH       0.014700
     70 H20         10.0480     0.8870     5.2630 hc         1 0SH       0.014700
     71 H21         10.0490    -0.8820     5.2650 hc         1 0SH       0.014700
     72 H22          9.8350    -0.8790     7.7280 hc         1 0SH       0.014700
     73 H23          9.8360     0.8900     7.7260 hc         1 0SH       0.014700
     74 H24         12.0890    -0.8810     6.7080 hc         1 0SH       0.015700
     75 H25         12.0890     0.8880     6.7060 hc         1 0SH       0.015700
     76 H26         11.8750     0.8910     9.1690 hc         1 0SH       0.015200
     77 H28         14.1280     0.8890     8.1490 hc         1 0SH       0.028200
     78 H30         13.8440     0.8440    10.6370 h1         1 0SH       0.018700
     79 H31         13.0780    -1.0920    11.1920 ho         1 0SH       0.398000
     80 H32         16.2330    -0.7040     9.5700 h1         1 0SH       0.027700
     81 H33         16.5570     1.1610     8.6230 ho         1 0SH       0.400000
     82 H34         15.8050     0.9100    12.1090 h1         1 0SH       0.068700
     83 H35         18.0130     1.3890    11.1720 h1         1 0SH       0.023200
     84 H36         18.1910     0.3220    12.5710 h1         1 0SH       0.023200
     85 H37         20.1380     0.6140    10.4400 h2         1 0SH       0.032700
     86 H38         19.1140    -2.2400    12.4190 h1         1 0SH       0.033700
     87 H39         20.6870    -3.3880    14.0010 h1         1 0SH      -0.003800
     88 H40         21.8810    -2.1230    13.6770 h1         1 0SH      -0.003800
     89 H41         20.7440    -1.4610    15.4660 ho         1 0SH       0.390000
     90 H42         20.5140    -4.0960    11.6280 h1         1 0SH       0.005700
     91 H43         22.5970    -3.7700    11.4400 ho         1 0SH       0.389000
     92 H44         19.0990    -2.9470     9.9840 h1         1 0SH       0.025700
     93 H45         20.1430    -4.3220     8.7400 ho         1 0SH       0.389000
     94 H46         21.5330    -1.1840     9.5160 h1         1 0SH       0.041700
     95 H47         20.5080    -0.7470     7.7200 ho         1 0SH       0.393000
     96 H48         15.9710    -1.9880    11.5920 hn         1 0SH       0.186500
     97 H49         16.4360    -3.2970    13.8900 hc         1 0SH       0.024200
     98 H50         14.6980    -2.9950    13.7570 hc         1 0SH       0.024200
     99 H51         14.7480    -1.7570    15.8970 hc         1 0SH       0.031700
    100 H52         16.4870    -2.0570    16.0300 hc         1 0SH       0.031700
    101 H53         16.0640    -4.4940    16.0520 hc         1 0SH       0.010200
    102 H54         14.3250    -4.1940    15.9180 hc         1 0SH       0.010200
    103 H55         16.1130    -3.2540    18.1910 hc         1 0SH       0.016700
    104 H56         14.3750    -2.9540    18.0570 hc         1 0SH       0.016700
    105 H57         13.9520    -5.3920    18.0790 hc         1 0SH       0.013200
    106 H58         15.6910    -5.6910    18.2130 hc         1 0SH       0.013200
    107 H59         14.0020    -4.1520    20.2180 hc         1 0SH       0.015700
    108 H60         15.7400    -4.4520    20.3520 hc         1 0SH       0.015700
    109 H61         13.5790    -6.5880    20.2400 hc         1 0SH       0.014200
    110 H62         15.3170    -6.8880    20.3740 hc         1 0SH       0.014200
    111 H63         13.6270    -5.3490    22.3790 hc         1 0SH       0.014700
    112 H64         15.3660    -5.6480    22.5130 hc         1 0SH       0.014700
    113 H65         13.2070    -7.7860    22.4010 hc         1 0SH       0.014700
    114 H66         14.9450    -8.0850    22.5350 hc         1 0SH       0.014700
    115 H67         13.2540    -6.5460    24.5400 hc         1 0SH       0.014700
    116 H68         14.9920    -6.8450    24.6750 hc         1 0SH       0.014700
    117 H69         14.5720    -9.2820    24.6960 hc         1 0SH       0.014700
    118 H70         12.8330    -8.9830    24.5610 hc         1 0SH       0.014700
    119 H71         14.6190    -8.0420    26.8360 hc         1 0SH       0.014700
    120 H72         12.8810    -7.7430    26.7010 hc         1 0SH       0.014700
    121 H73         14.1980   -10.4790    26.8570 hc         1 0SH       0.014700
    122 H74         12.4600   -10.1800    26.7220 hc         1 0SH       0.014700
    123 H75         12.5070    -8.9400    28.8620 hc         1 0SH       0.011700
    124 H76         14.2460    -9.2390    28.9970 hc         1 0SH       0.011700
    125 H77         12.0870   -11.3770    28.8830 hc         1 0SH       0.000033
    126 H78         12.9600   -10.8730    30.3360 hc         1 0SH       0.000033
    127 H79         13.8250   -11.6760    29.0180 hc         1 0SH       0.000033
    128 H27         11.8740    -0.8780     9.1710 hc         1 0SH       0.015200
    129 H29         14.1280    -0.8800     8.1510 hc         1 0SH       0.028200
@<TRIPOS>BOND
     1     1     2 1   
     2     1    51 1   
     3     1    52 1   
     4     1    53 1   
     5     2     3 1   
     6     2    54 1   
     7     2    55 1   
     8     3     4 1   
     9     3    56 1   
    10     3    57 1   
    11     4     5 1   
    12     4    58 1   
    13     4    59 1   
    14     5     6 1   
    15     5    60 1   
    16     5    61 1   
    17     6     7 1   
    18     6    62 1   
    19     6    63 1   
    20     7     8 1   
    21     7    64 1   
    22     7    65 1   
    23     8     9 1   
    24     8    66 1   
    25     8    67 1   
    26     9    10 1   
    27     9    68 1   
    28     9    69 1   
    29    10    11 1   
    30    10    70 1   
    31    10    71 1   
    32    11    12 1   
    33    11    72 1   
    34    11    73 1   
    35    12    13 1   
    36    12    74 1   
    37    12    75 1   
    38    13    14 1   
    39    13    76 1   
    40    13   128 1   
    41    14    15 1   
    42    14    77 1   
    43    14   129 1   
    44    15    16 1   
    45    15    17 1   
    46    15    78 1   
    47    16    79 1   
    48    17    18 1   
    49    17    19 1   
    50    17    80 1   
    51    18    81 1   
    52    19    20 1   
    53    19    33 1   
    54    19    82 1   
    55    20    21 1   
    56    20    83 1   
    57    20    84 1   
    58    21    22 1   
    59    22    23 1   
    60    22    31 1   
    61    22    85 1   
    62    23    24 1   
    63    24    25 1   
    64    24    27 1   
    65    24    86 1   
    66    25    26 1   
    67    25    87 1   
    68    25    88 1   
    69    26    89 1   
    70    27    28 1   
    71    27    29 1   
    72    27    90 1   
    73    28    91 1   
    74    29    30 1   
    75    29    31 1   
    76    29    92 1   
    77    30    93 1   
    78    31    32 1   
    79    31    94 1   
    80    32    95 1   
    81    33    34 1   
    82    33    96 1   
    83    34    35 2   
    84    34    36 1   
    85    36    37 1   
    86    36    97 1   
    87    36    98 1   
    88    37    38 1   
    89    37    99 1   
    90    37   100 1   
    91    38    39 1   
    92    38   101 1   
    93    38   102 1   
    94    39    40 1   
    95    39   103 1   
    96    39   104 1   
    97    40    41 1   
    98    40   105 1   
    99    40   106 1   
   100    41    42 1   
   101    41   107 1   
   102    41   108 1   
   103    42    43 1   
   104    42   109 1   
   105    42   110 1   
   106    43    44 1   
   107    43   111 1   
   108    43   112 1   
   109    44    45 1   
   110    44   113 1   
   111    44   114 1   
   112    45    46 1   
   113    45   115 1   
   114    45   116 1   
   115    46    47 1   
   116    46   117 1   
   117    46   118 1   
   118    47    48 1   
   119    47   119 1   
   120    47   120 1   
   121    48    49 1   
   122    48   121 1   
   123    48   122 1   
   124    49    50 1   
   125    49   123 1   
   126    49   124 1   
   127    50   125 1   
   128    50   126 1   
   129    50   127 1   
@<TRIPOS>SUBSTRUCTURE
     1 0SH         1 TEMP              0 ****  ****    0 ROOT
