@<TRIPOS>MOLECULE
0SJ
   40    43     1     0     0
SMALL
bcc


@<TRIPOS>ATOM
      1 OAB          0.1000     0.2570     0.1700 o          1 0SJ      -0.641500
      2 CAU          1.3470     0.2670     0.1340 c          1 0SJ       0.682700
      3 CAL          2.2030     0.4560     1.3030 cc         1 0SJ      -0.260200
      4 CAF          3.5550     0.4820     1.1830 cd         1 0SJ      -0.036000
      5 CAG          4.1600     0.3140    -0.0940 cd         1 0SJ      -0.261000
      6 CAT          3.3710     0.1210    -1.2110 cc         1 0SJ       0.074400
      7 NAY          1.9910     0.0870    -1.1200 n          1 0SJ      -0.331000
      8 CAP          1.1330    -0.0480    -2.2860 c3         1 0SJ       0.084000
      9 CAV          1.8430    -0.3160    -3.6130 c3         1 0SJ      -0.096700
     10 CAN          2.1100    -1.8140    -3.8330 c3         1 0SJ       0.083000
     11 CAM          3.1550     0.4470    -3.6710 c3         1 0SJ      -0.079400
     12 CAW          4.0350    -0.0830    -2.5500 c3         1 0SJ      -0.055500
     13 CAO          4.3090    -1.5840    -2.7780 c3         1 0SJ       0.096000
     14 NAX          3.1190    -2.3770    -2.9620 n          1 0SJ      -0.467800
     15 CAQ          2.7940    -3.4510    -2.1350 c          1 0SJ       0.674700
     16 OAA          1.6560    -3.9590    -2.1830 o          1 0SJ      -0.585100
     17 CAR          3.8400    -4.0260    -1.2400 ca         1 0SJ      -0.134600
     18 CAH          5.0560    -4.4870    -1.7540 ca         1 0SJ      -0.085500
     19 CAJ          5.9910    -5.0800    -0.9080 ca         1 0SJ      -0.132000
     20 CAS          5.7060    -5.2060     0.4560 ca         1 0SJ       0.032400
     21 Cl1          6.8480    -5.9200     1.4910 cl         1 0SJ      -0.085400
     22 CAK          4.4880    -4.7530     0.9740 ca         1 0SJ      -0.132000
     23 CAI          3.5530    -4.1680     0.1210 ca         1 0SJ      -0.085500
     24 H1           1.6750     0.5800     2.2580 ha         1 0SJ       0.163000
     25 H2           4.2040     0.6320     2.0600 ha         1 0SJ       0.139000
     26 H3           5.2520     0.3360    -0.1870 ha         1 0SJ       0.146000
     27 H4           0.3980    -0.8790    -2.0730 h1         1 0SJ       0.075200
     28 H5           0.5410     0.9100    -2.3750 h1         1 0SJ       0.075200
     29 H6           1.1580     0.0250    -4.4360 hc         1 0SJ       0.075700
     30 H7           1.1440    -2.3840    -3.7090 h1         1 0SJ       0.069700
     31 H8           2.4660    -1.9490    -4.8960 h1         1 0SJ       0.069700
     32 H9           3.6560     0.2880    -4.6600 hc         1 0SJ       0.058700
     33 H10          2.9770     1.5450    -3.5450 hc         1 0SJ       0.058700
     34 H11          5.0240     0.4520    -2.5480 hc         1 0SJ       0.080700
     35 H12          4.9120    -1.9730    -1.9100 h1         1 0SJ       0.059700
     36 H13          4.9350    -1.6760    -3.7140 h1         1 0SJ       0.059700
     37 H14          5.2740    -4.3900    -2.8290 ha         1 0SJ       0.152000
     38 H15          6.9460    -5.4490    -1.3130 ha         1 0SJ       0.153000
     39 H19          4.2620    -4.8620     2.0460 ha         1 0SJ       0.153000
     40 H20          2.5810    -3.8290     0.5140 ha         1 0SJ       0.152000
@<TRIPOS>BOND
     1     1     2 2   
     2     2     3 1   
     3     2     7 1   
     4     3     4 2   
     5     3    24 1   
     6     4     5 1   
     7     4    25 1   
     8     5     6 2   
     9     5    26 1   
    10     6     7 1   
    11     6    12 1   
    12     7     8 1   
    13     8     9 1   
    14     8    27 1   
    15     8    28 1   
    16     9    10 1   
    17     9    11 1   
    18     9    29 1   
    19    10    14 1   
    20    10    30 1   
    21    10    31 1   
    22    11    12 1   
    23    11    32 1   
    24    11    33 1   
    25    12    13 1   
    26    12    34 1   
    27    13    14 1   
    28    13    35 1   
    29    13    36 1   
    30    14    15 1   
    31    15    16 2   
    32    15    17 1   
    33    17    18 ar  
    34    17    23 ar  
    35    18    19 ar  
    36    18    37 1   
    37    19    20 ar  
    38    19    38 1   
    39    20    21 1   
    40    20    22 ar  
    41    22    23 ar  
    42    22    39 1   
    43    23    40 1   
@<TRIPOS>SUBSTRUCTURE
     1 0SJ         1 TEMP              0 ****  ****    0 ROOT
