@<TRIPOS>MOLECULE
molecule
   40    43     1     0     0
SMALL
bcc


@<TRIPOS>ATOM
      1 OAB          0.0000     0.0000     0.0000 o          1 0SJ      -0.664500
      2 CAU          1.2210     0.0000     0.0000 c          1 0SJ       0.681700
      3 CAL          1.9140     0.0000     1.2180 cc         1 0SJ      -0.273200
      4 CAF          3.2760    -0.0810     1.2060 cd         1 0SJ      -0.035000
      5 CAG          3.9370    -0.1840    -0.0240 cd         1 0SJ      -0.251000
      6 CAT          3.2340    -0.1700    -1.1880 cc         1 0SJ       0.074400
      7 NAY          1.8930    -0.0060    -1.1780 n          1 0SJ      -0.302000
      8 CAP          1.1080     0.2370    -2.3890 c3         1 0SJ       0.098000
      9 CAV          1.8300    -0.2160    -3.6450 c3         1 0SJ      -0.104700
     10 CAN          1.7840    -1.7290    -3.8150 c3         1 0SJ       0.095000
     11 CAM          3.2710     0.2920    -3.6300 c3         1 0SJ      -0.078400
     12 CAW          4.0090    -0.3670    -2.4710 c3         1 0SJ      -0.052500
     13 CAO          4.0680    -1.8780    -2.7540 c3         1 0SJ       0.116000
     14 NAX          2.6810    -2.3740    -2.8480 n          1 0SJ      -0.490800
     15 CAQ          2.2430    -3.3860    -2.0720 c          1 0SJ       0.682700
     16 OAA          3.0140    -3.9570    -1.3250 o          1 0SJ      -0.594100
     17 CAR          0.8260    -3.8010    -2.1290 ca         1 0SJ      -0.141600
     18 CAH          0.2160    -4.0460    -3.3610 ca         1 0SJ      -0.083500
     19 CAJ         -1.1050    -4.4340    -3.4080 ca         1 0SJ      -0.127500
     20 CAS         -1.8290    -4.5810    -2.2350 ca         1 0SJ       0.045400
     21 Cl1         -3.4950    -5.0630    -2.3020 cl         1 0SJ      -0.102400
     22 CAK         -1.2290    -4.3400    -1.0100 ca         1 0SJ      -0.127500
     23 CAI          0.0940    -3.9560    -0.9510 ca         1 0SJ      -0.083500
     24 H1           1.3780     0.0810     2.1550 ha         1 0SJ       0.163000
     25 H2           3.8360    -0.0830     2.1330 ha         1 0SJ       0.137000
     26 H3           5.0180    -0.2490    -0.0500 ha         1 0SJ       0.144000
     27 H4           0.1710    -0.3010    -2.3110 h1         1 0SJ       0.073700
     28 H5           0.9050     1.2980    -2.4660 h1         1 0SJ       0.073700
     29 H6           1.3280     0.2290    -4.4960 hc         1 0SJ       0.068700
     30 H7           0.7720    -2.0770    -3.6500 h1         1 0SJ       0.061700
     31 H8           2.0980    -1.9850    -4.8190 h1         1 0SJ       0.061700
     32 H9           3.7570     0.0370    -4.5640 hc         1 0SJ       0.055700
     33 H10          3.2760     1.3680    -3.5000 hc         1 0SJ       0.055700
     34 H11          5.0080     0.0400    -2.3770 hc         1 0SJ       0.082700
     35 H12          4.5830    -2.0550    -3.6900 h1         1 0SJ       0.071200
     36 H13          4.5820    -2.3820    -1.9440 h1         1 0SJ       0.071200
     37 H14          0.7810    -3.9320    -4.2780 ha         1 0SJ       0.149000
     38 H15         -1.5790    -4.6250    -4.3630 ha         1 0SJ       0.149500
     39 H19         -1.8000    -4.4580    -0.0970 ha         1 0SJ       0.149500
     40 H20          0.5620    -3.7680     0.0080 ha         1 0SJ       0.149000
@<TRIPOS>BOND
     1    16    15 2   
     2    21    20 1   
     3    20    22 ar  
     4    20    19 ar  
     5    22    23 ar  
     6     1     2 2   
     7    19    18 ar  
     8    23    17 ar  
     9    18    17 ar  
    10    17    15 1   
    11    15    14 1   
    12     2     3 1   
    13     2     7 1   
    14     3     4 2   
    15    10    14 1   
    16    10     9 1   
    17    14    13 1   
    18     8     7 1   
    19     8     9 1   
    20     7     6 1   
    21     4     5 1   
    22     9    11 1   
    23     6     5 2   
    24     6    12 1   
    25    13    12 1   
    26    12    11 1   
    27     3    24 1   
    28     4    25 1   
    29     5    26 1   
    30     8    27 1   
    31     8    28 1   
    32     9    29 1   
    33    10    30 1   
    34    10    31 1   
    35    11    32 1   
    36    11    33 1   
    37    12    34 1   
    38    13    35 1   
    39    13    36 1   
    40    18    37 1   
    41    19    38 1   
    42    22    39 1   
    43    23    40 1   
@<TRIPOS>SUBSTRUCTURE
     1 0SJ         1 TEMP              0 ****  ****    0 ROOT
