@<TRIPOS>MOLECULE
0SK
   46    49     1     0     0
SMALL
bcc


@<TRIPOS>ATOM
      1 NBE          0.0000     0.0000     0.0000 nu         1 0SK      -0.202100
      2 OAE          1.4160     0.0000     0.0000 oh         1 0SK      -0.421300
      3 CAX         -0.7000     0.0000     1.2110 ca         1 0SK       0.100600
      4 CBB         -2.0800    -0.0000     1.2250 ca         1 0SK       0.019900
      5 SAV         -3.0690     0.0070    -0.2490 ss         1 0SK      -0.323100
      6 CAJ         -0.0170    -0.0070     2.4220 ca         1 0SK      -0.087000
      7 CAW         -0.7230    -0.0080     3.6150 ca         1 0SK      -0.174300
      8 CBG          0.0330    -0.0150     4.9190 c3         1 0SK       0.638200
      9 FAG         -0.3080    -1.1580     5.6500 f          1 0SK      -0.206300
     10 FAH          1.4080    -0.0200     4.6620 f          1 0SK      -0.206300
     11 FAF         -0.2990     1.1260     5.6570 f          1 0SK      -0.206300
     12 CAK         -2.0990    -0.0020     3.6340 ca         1 0SK      -0.019000
     13 CBA         -2.8130    -0.0070     2.4300 ca         1 0SK      -0.128600
     14 CAZ         -4.2740    -0.0020     2.4000 c          1 0SK       0.715100
     15 OAD         -4.8140     0.0080     3.4930 o          1 0SK      -0.576100
     16 NAR         -5.0940    -0.0050     1.3740 nc         1 0SK      -0.696100
     17 CAY         -4.7720     0.0050     0.0850 cd         1 0SK       0.602100
     18 NBF         -5.7150     0.0000    -0.9070 nh         1 0SK      -0.324600
     19 CAM         -7.1460    -0.0160    -0.5780 c3         1 0SK       0.151800
     20 CAO         -7.8320     1.1500    -1.2980 c3         1 0SK      -0.065900
     21 CAL         -5.3130     0.0170    -2.3190 c3         1 0SK       0.151800
     22 CAN         -6.0190     1.1840    -3.0190 c3         1 0SK      -0.065900
     23 CBH         -7.5240     1.0710    -2.7940 c3         1 0SK       0.358600
     24 OAT         -8.1940     2.1370    -3.4770 os         1 0SK      -0.407600
     25 OAS         -7.9920    -0.1830    -3.3180 os         1 0SK      -0.412600
     26 CAP         -8.4650     0.1270    -4.6510 c3         1 0SK       0.173400
     27 CBD         -9.0760     1.5360    -4.4480 c3         1 0SK       0.145100
     28 CAA         -9.0570     2.3270    -5.7580 c3         1 0SK      -0.000100
     29 H1          -0.5000    -0.0000    -0.8670 hn         1 0SK       0.293800
     30 H2           1.7300     0.0000    -0.8890 ho         1 0SK       0.406000
     31 H3           1.0660    -0.0110     2.4330 ha         1 0SK       0.145000
     32 H4          -2.6280    -0.0030     4.5790 ha         1 0SK       0.144000
     33 H5          -7.5830    -0.9520    -0.9070 h1         1 0SK       0.049450
     34 H6          -7.2730     0.0940     0.4930 h1         1 0SK       0.049450
     35 H7          -8.9020     1.0880    -1.1460 hc         1 0SK       0.040700
     36 H8          -7.4580     2.0870    -0.9020 hc         1 0SK       0.040700
     37 H9          -4.2400     0.1480    -2.3900 h1         1 0SK       0.049450
     38 H10         -5.6020    -0.9150    -2.7890 h1         1 0SK       0.049450
     39 H11         -5.8090     1.1480    -4.0810 hc         1 0SK       0.040700
     40 H12         -5.6620     2.1200    -2.6070 hc         1 0SK       0.040700
     41 H13         -9.2240    -0.5800    -4.9650 h1         1 0SK       0.023200
     42 H14         -7.6420     0.1620    -5.3540 h1         1 0SK       0.023200
     43 H15        -10.0820     1.4610    -4.0530 h1         1 0SK       0.030700
     44 H16         -9.4350     3.3270    -5.5810 hc         1 0SK       0.013033
     45 H17         -8.0410     2.3860    -6.1300 hc         1 0SK       0.013033
     46 H18         -9.6820     1.8290    -6.4900 hc         1 0SK       0.013033
@<TRIPOS>BOND
     1     1     2 1   
     2     1     3 1   
     3     1    29 1   
     4     2    30 1   
     5     3     4 ar  
     6     3     6 ar  
     7     4     5 1   
     8     4    13 ar  
     9     5    17 1   
    10     6     7 ar  
    11     6    31 1   
    12     7     8 1   
    13     7    12 ar  
    14     8     9 1   
    15     8    10 1   
    16     8    11 1   
    17    12    13 ar  
    18    12    32 1   
    19    13    14 1   
    20    14    15 2   
    21    14    16 1   
    22    16    17 2   
    23    17    18 1   
    24    18    19 1   
    25    18    21 1   
    26    19    20 1   
    27    19    33 1   
    28    19    34 1   
    29    20    23 1   
    30    20    35 1   
    31    20    36 1   
    32    21    22 1   
    33    21    37 1   
    34    21    38 1   
    35    22    23 1   
    36    22    39 1   
    37    22    40 1   
    38    23    24 1   
    39    23    25 1   
    40    24    27 1   
    41    25    26 1   
    42    26    27 1   
    43    26    41 1   
    44    26    42 1   
    45    27    28 1   
    46    27    43 1   
    47    28    44 1   
    48    28    45 1   
    49    28    46 1   
@<TRIPOS>SUBSTRUCTURE
     1 0SK         1 TEMP              0 ****  ****    0 ROOT
