@<TRIPOS>MOLECULE
0SK
   46    49     1     0     0
SMALL
bcc


@<TRIPOS>ATOM
      1 NBE          0.1120    -0.4340    -0.0500 nu         1 0SK      -0.441100
      2 OAE         -0.6390    -0.0850    -1.1030 oh         1 0SK      -0.411300
      3 CAX         -0.5620    -0.2350     1.2090 ca         1 0SK       0.053600
      4 CBB          0.0120    -0.7890     2.3850 ca         1 0SK       0.000900
      5 SAV          1.3970    -1.7420     2.1940 ss         1 0SK      -0.117100
      6 CAJ         -1.7090     0.5660     1.3130 ca         1 0SK      -0.071000
      7 CAW         -2.2710     0.8250     2.5630 ca         1 0SK      -0.163300
      8 CBG         -3.5240     1.6900     2.6520 c3         1 0SK       0.690200
      9 FAG         -4.6990     0.9900     2.5160 f          1 0SK      -0.232967
     10 FAH         -3.6060     2.6690     1.6920 f          1 0SK      -0.232967
     11 FAF         -3.6690     2.3660     3.8380 f          1 0SK      -0.232967
     12 CAK         -1.7150     0.2870     3.7190 ca         1 0SK      -0.029000
     13 CBA         -0.5750    -0.5210     3.6270 ca         1 0SK      -0.162600
     14 CAZ         -0.0230    -1.0780     4.8990 c          1 0SK       0.718100
     15 OAD         -0.4570    -0.6870     5.9940 o          1 0SK      -0.516100
     16 NAR          0.9790    -2.0600     4.8840 nc         1 0SK      -0.721100
     17 CAY          1.6020    -2.4510     3.8010 cd         1 0SK       0.703100
     18 NBF          2.4870    -3.5360     3.8070 nh         1 0SK      -0.697600
     19 CAM          3.5760    -3.4970     2.8390 c3         1 0SK       0.194800
     20 CAO          4.2400    -4.8550     2.6290 c3         1 0SK      -0.096900
     21 CAL          2.8260    -4.1490     5.0860 c3         1 0SK       0.194800
     22 CAN          3.4910    -5.5130     4.9380 c3         1 0SK      -0.096900
     23 CBH          4.6680    -5.4650     3.9640 c3         1 0SK       0.347600
     24 OAT          5.7620    -4.7210     4.5020 os         1 0SK      -0.438600
     25 OAS          5.1680    -6.7850     3.7280 os         1 0SK      -0.435600
     26 CAP          6.4000    -6.9840     4.4230 c3         1 0SK       0.107400
     27 CBD          6.8070    -5.6030     4.9460 c3         1 0SK       0.119100
     28 CAA          6.9310    -5.5430     6.4510 c3         1 0SK      -0.113100
     29 H1           0.3100    -1.4350    -0.1510 hn         1 0SK       0.392800
     30 H2          -0.2890     0.7840    -1.3830 ho         1 0SK       0.432000
     31 H3          -2.1730     0.9910     0.4060 ha         1 0SK       0.168000
     32 H4          -2.1530     0.4950     4.7130 ha         1 0SK       0.184000
     33 H5           4.3670    -2.7650     3.1780 h1         1 0SK       0.065950
     34 H6           3.1790    -3.1570     1.8370 h1         1 0SK       0.065950
     35 H7           5.1360    -4.7130     1.9740 hc         1 0SK       0.072950
     36 H8           3.5410    -5.5730     2.1270 hc         1 0SK       0.072950
     37 H9           3.5180    -3.4680     5.6640 h1         1 0SK       0.065950
     38 H10          1.8820    -4.2850     5.6860 h1         1 0SK       0.065950
     39 H11          3.8510    -5.8370     5.9480 hc         1 0SK       0.072950
     40 H12          2.7600    -6.2750     4.5630 hc         1 0SK       0.072950
     41 H13          6.2200    -7.7210     5.2460 h1         1 0SK       0.061700
     42 H14          7.1240    -7.3990     3.6780 h1         1 0SK       0.061700
     43 H15          7.7450    -5.2270     4.4550 h1         1 0SK       0.073700
     44 H16          7.7770    -6.1910     6.7830 hc         1 0SK       0.050033
     45 H17          7.1270    -4.4930     6.7750 hc         1 0SK       0.050033
     46 H18          5.9900    -5.8930     6.9400 hc         1 0SK       0.050033
@<TRIPOS>BOND
     1     1     2 1   
     2     1     3 1   
     3     1    29 1   
     4     2    30 1   
     5     3     4 ar  
     6     3     6 ar  
     7     4     5 1   
     8     4    13 ar  
     9     5    17 1   
    10     6     7 ar  
    11     6    31 1   
    12     7     8 1   
    13     7    12 ar  
    14     8     9 1   
    15     8    10 1   
    16     8    11 1   
    17    12    13 ar  
    18    12    32 1   
    19    13    14 1   
    20    14    15 2   
    21    14    16 1   
    22    16    17 2   
    23    17    18 1   
    24    18    19 1   
    25    18    21 1   
    26    19    20 1   
    27    19    33 1   
    28    19    34 1   
    29    20    23 1   
    30    20    35 1   
    31    20    36 1   
    32    21    22 1   
    33    21    37 1   
    34    21    38 1   
    35    22    23 1   
    36    22    39 1   
    37    22    40 1   
    38    23    24 1   
    39    23    25 1   
    40    24    27 1   
    41    25    26 1   
    42    26    27 1   
    43    26    41 1   
    44    26    42 1   
    45    27    28 1   
    46    27    43 1   
    47    28    44 1   
    48    28    45 1   
    49    28    46 1   
@<TRIPOS>SUBSTRUCTURE
     1 0SK         1 TEMP              0 ****  ****    0 ROOT
