@<TRIPOS>MOLECULE
molecule
   46    49     1     0     0
SMALL
bcc


@<TRIPOS>ATOM
      1 NBE          0.0000     0.0000     0.0000 nu         1 0SK      -0.634100
      2 OAE          1.4160     0.0000     0.0000 oh         1 0SK      -0.334300
      3 CAX         -0.7000     0.0000     1.2110 ca         1 0SK       0.247600
      4 CBB         -2.0800    -0.0000     1.2250 ca         1 0SK      -0.006100
      5 SAV         -3.0690     0.0070    -0.2490 ss         1 0SK      -0.250100
      6 CAJ         -0.0170    -0.0070     2.4220 ca         1 0SK      -0.114000
      7 CAW         -0.7230    -0.0080     3.6150 ca         1 0SK      -0.151300
      8 CBG          0.0330    -0.0150     4.9190 c3         1 0SK       0.674200
      9 FAG         -0.3080    -1.1580     5.6500 f          1 0SK      -0.220633
     10 FAH          1.4080    -0.0200     4.6620 f          1 0SK      -0.220633
     11 FAF         -0.2990     1.1260     5.6570 f          1 0SK      -0.220633
     12 CAK         -2.0990    -0.0020     3.6340 ca         1 0SK      -0.056000
     13 CBA         -2.8130    -0.0070     2.4300 ca         1 0SK      -0.136600
     14 CAZ         -4.2740    -0.0020     2.4000 c          1 0SK       0.725100
     15 OAD         -4.8140     0.0080     3.4930 o          1 0SK      -0.543100
     16 NAR         -5.0940    -0.0050     1.3740 nc         1 0SK      -0.797100
     17 CAY         -4.7720     0.0050     0.0850 cd         1 0SK       0.768100
     18 NBF         -5.7150     0.0000    -0.9070 nh         1 0SK      -0.724600
     19 CAM         -7.1460    -0.0160    -0.5780 c3         1 0SK       0.231800
     20 CAO         -7.8320     1.1500    -1.2980 c3         1 0SK      -0.108900
     21 CAL         -5.3130     0.0170    -2.3190 c3         1 0SK       0.231800
     22 CAN         -6.0190     1.1840    -3.0190 c3         1 0SK      -0.108900
     23 CBH         -7.5240     1.0710    -2.7940 c3         1 0SK       0.326600
     24 OAT         -8.1940     2.1370    -3.4770 os         1 0SK      -0.417600
     25 OAS         -7.9920    -0.1830    -3.3180 os         1 0SK      -0.420600
     26 CAP         -8.4650     0.1270    -4.6510 c3         1 0SK       0.094400
     27 CBD         -9.0760     1.5360    -4.4480 c3         1 0SK       0.104100
     28 CAA         -9.0570     2.3270    -5.7580 c3         1 0SK      -0.094100
     29 H1          -0.5000    -0.0000    -0.8670 hn         1 0SK       0.462800
     30 H2           1.7300     0.0000    -0.8890 ho         1 0SK       0.411000
     31 H3           1.0660    -0.0110     2.4330 ha         1 0SK       0.175000
     32 H4          -2.6280    -0.0030     4.5790 ha         1 0SK       0.175000
     33 H5          -7.5830    -0.9520    -0.9070 h1         1 0SK       0.076450
     34 H6          -7.2730     0.0940     0.4930 h1         1 0SK       0.076450
     35 H7          -8.9020     1.0880    -1.1460 hc         1 0SK       0.071200
     36 H8          -7.4580     2.0870    -0.9020 hc         1 0SK       0.071200
     37 H9          -4.2400     0.1480    -2.3900 h1         1 0SK       0.076450
     38 H10         -5.6020    -0.9150    -2.7890 h1         1 0SK       0.076450
     39 H11         -5.8090     1.1480    -4.0810 hc         1 0SK       0.071200
     40 H12         -5.6620     2.1200    -2.6070 hc         1 0SK       0.071200
     41 H13         -9.2240    -0.5800    -4.9650 h1         1 0SK       0.064200
     42 H14         -7.6420     0.1620    -5.3540 h1         1 0SK       0.064200
     43 H15        -10.0820     1.4610    -4.0530 h1         1 0SK       0.066700
     44 H16         -9.4350     3.3270    -5.5810 hc         1 0SK       0.048700
     45 H17         -8.0410     2.3860    -6.1300 hc         1 0SK       0.048700
     46 H18         -9.6820     1.8290    -6.4900 hc         1 0SK       0.048700
@<TRIPOS>BOND
     1    28    27 1
     2    27    24 1
     3    27    26 1
     4    24    23 1
     5    11     8 1
     6    21    18 1
     7    21    22 1
     8    15    14 2
     9    16    14 1
    10    16    17 2
    11    18    17 1
    12    18    19 1
    13    14    13 1
    14    17     5 1
    15    26    25 1
    16    19    20 1
    17     2     1 1
    18    23    22 1
    19    23    20 1
    20    23    25 1
    21    13    12 ar
    22    13     4 ar
    23    12     7 ar
    24     5     4 1
    25     4     3 ar
    26     7     8 1
    27     7     6 ar
    28     8    10 1
    29     8     9 1
    30     3     6 ar
    31     3     1 1
    32     1    29 1
    33     2    30 1
    34     6    31 1
    35    12    32 1
    36    19    33 1
    37    19    34 1
    38    20    35 1
    39    20    36 1
    40    21    37 1
    41    21    38 1
    42    22    39 1
    43    22    40 1
    44    26    41 1
    45    26    42 1
    46    27    43 1
    47    28    44 1
    48    28    45 1
    49    28    46 1
@<TRIPOS>SUBSTRUCTURE
     1 0SK         1 TEMP              0 ****  ****    0 ROOT
