@<TRIPOS>MOLECULE
0SL
   38    40     1     0     0
SMALL
bcc


@<TRIPOS>ATOM
      1 CAK         -0.5430    -0.5220    -0.5380 ca         1 0SL       0.034000
      2 CAS          0.8460    -0.6780    -0.2780 ca         1 0SL      -0.079000
      3 CAI          1.2890    -1.3100     0.9170 ca         1 0SL      -0.066000
      4 CAF          2.6360    -1.4460     1.1580 ca         1 0SL      -0.171000
      5 CAE          3.5830    -0.9650     0.2240 ca         1 0SL      -0.108000
      6 CAH          3.1750    -0.3600    -0.9430 ca         1 0SL      -0.159000
      7 CAR          1.7910    -0.2070    -1.2220 ca         1 0SL       0.007000
      8 CAJ          1.3140     0.3940    -2.4210 ca         1 0SL      -0.167000
      9 CAG         -0.0310     0.5140    -2.6510 ca         1 0SL      -0.040000
     10 CAQ         -0.9920     0.0600    -1.7040 ca         1 0SL      -0.398500
     11 SAV         -2.6330     0.2930    -2.0310 sy         1 0SL       1.498200
     12 OAB         -2.7580     0.6030    -3.4180 o          1 0SL      -0.671300
     13 OAC         -3.1350     1.3030    -1.1750 o          1 0SL      -0.671300
     14 NAU         -3.3450    -1.1250    -1.7210 n3         1 0SL      -0.804500
     15 CAO         -3.7440    -1.5200    -0.3860 c3         1 0SL       0.230800
     16 CAN         -3.4590    -2.1610    -2.7130 c3         1 0SL       0.230800
     17 CAL         -2.7490    -3.4750    -2.3650 c3         1 0SL      -0.095400
     18 CAM         -2.3160    -3.5490    -0.9170 c3         1 0SL      -0.058400
     19 CAT         -3.3350    -2.9400     0.0260 c3         1 0SL      -0.204700
     20 CAP         -2.7510    -2.9420     1.4620 c          1 0SL       0.918600
     21 OAD         -3.2350    -3.7590     2.2880 o          1 0SL      -0.840300
     22 OAA         -1.8080    -2.1370     1.7320 o          1 0SL      -0.840300
     23 H1          -1.2440    -0.9090     0.2440 ha         1 0SL       0.226000
     24 H2           0.5180    -1.6890     1.6190 ha         1 0SL       0.201000
     25 H3           2.9910    -1.9330     2.0770 ha         1 0SL       0.129000
     26 H4           4.6540    -1.0830     0.4420 ha         1 0SL       0.116000
     27 H5           3.9070     0.0100    -1.6740 ha         1 0SL       0.120000
     28 H6           2.0460     0.7560    -3.1570 ha         1 0SL       0.122000
     29 H7          -0.4000     0.9690    -3.5870 ha         1 0SL       0.147000
     30 H8          -3.3140    -0.7790     0.3520 h1         1 0SL       0.053200
     31 H9          -4.8690    -1.4410    -0.3250 h1         1 0SL       0.053200
     32 H10         -4.5580    -2.3790    -2.8570 h1         1 0SL       0.042700
     33 H11         -3.0630    -1.7680    -3.6940 h1         1 0SL       0.042700
     34 H12         -3.4500    -4.3190    -2.5930 hc         1 0SL       0.029200
     35 H13         -1.8530    -3.5990    -3.0270 hc         1 0SL       0.029200
     36 H14         -1.3370    -3.0110    -0.7850 hc         1 0SL       0.047200
     37 H15         -2.1460    -4.6190    -0.6300 hc         1 0SL       0.047200
     38 H16         -4.2550    -3.5840     0.0280 hc         1 0SL       0.048700
@<TRIPOS>BOND
     1     1     2 ar  
     2     1    10 ar  
     3     1    23 1   
     4     2     3 ar  
     5     2     7 ar  
     6     3     4 ar  
     7     3    24 1   
     8     4     5 ar  
     9     4    25 1   
    10     5     6 ar  
    11     5    26 1   
    12     6     7 ar  
    13     6    27 1   
    14     7     8 ar  
    15     8     9 ar  
    16     8    28 1   
    17     9    10 ar  
    18     9    29 1   
    19    10    11 1   
    20    11    12 2   
    21    11    13 2   
    22    11    14 1   
    23    14    15 1   
    24    14    16 1   
    25    15    19 1   
    26    15    30 1   
    27    15    31 1   
    28    16    17 1   
    29    16    32 1   
    30    16    33 1   
    31    17    18 1   
    32    17    34 1   
    33    17    35 1   
    34    18    19 1   
    35    18    36 1   
    36    18    37 1   
    37    19    20 1   
    38    19    38 1   
    39    20    21 1   
    40    20    22 1   
@<TRIPOS>SUBSTRUCTURE
     1 0SL         1 TEMP              0 ****  ****    0 ROOT
