@<TRIPOS>MOLECULE
0SL
   38    40     1     0     0
SMALL
bcc


@<TRIPOS>ATOM
      1 CAK          0.0000     0.0000     0.0000 ca         1 0SL       0.027000
      2 CAS          1.4050     0.0000     0.0000 ca         1 0SL      -0.075000
      3 CAI          2.1350     0.0000     1.2000 ca         1 0SL      -0.068000
      4 CAF          3.4950     0.0000     1.1610 ca         1 0SL      -0.122000
      5 CAE          4.1790     0.0010    -0.0550 ca         1 0SL      -0.093000
      6 CAH          3.5050     0.0010    -1.2360 ca         1 0SL      -0.100000
      7 CAR          2.1000     0.0010    -1.2360 ca         1 0SL       0.001000
      8 CAJ          1.3690     0.0010    -2.4370 ca         1 0SL      -0.125000
      9 CAG          0.0090     0.0000    -2.3970 ca         1 0SL      -0.001000
     10 CAQ         -0.6740    -0.0010    -1.1820 ca         1 0SL      -0.145500
     11 SAV         -2.4360    -0.0100    -1.1770 sy         1 0SL       1.040200
     12 OAB         -2.8380    -0.5520    -2.4270 o          1 0SL      -0.598800
     13 OAC         -2.8310    -0.5590     0.0730 o          1 0SL      -0.598800
     14 NAU         -2.9340     1.5700    -1.1720 n3         1 0SL      -0.519500
     15 CAO         -3.1630     2.2870    -2.4330 c3         1 0SL       0.238800
     16 CAN         -3.1610     2.2780     0.0950 c3         1 0SL       0.232800
     17 CAL         -4.5740     2.8730     0.0820 c3         1 0SL      -0.047400
     18 CAM         -4.7440     3.7430    -1.1650 c3         1 0SL      -0.006400
     19 CAT         -4.5750     2.8820    -2.4130 c3         1 0SL      -0.166700
     20 CAP         -4.7740     3.7300    -3.6420 c          1 0SL       0.988600
     21 OAD         -3.8830     3.8440    -4.4500 o          1 0SL      -0.898300
     22 OAA         -5.9420     4.3610    -3.8400 o          1 0SL      -0.898300
     23 H1          -0.5440    -0.0010     0.9370 ha         1 0SL       0.123000
     24 H2           1.6180    -0.0000     2.1520 ha         1 0SL       0.105000
     25 H3           4.0560     0.0000     2.0880 ha         1 0SL       0.097000
     26 H4           5.2620     0.0010    -0.0580 ha         1 0SL       0.095000
     27 H5           4.0490     0.0010    -2.1730 ha         1 0SL       0.105000
     28 H6           1.8860     0.0020    -3.3890 ha         1 0SL       0.109000
     29 H7          -0.5520    -0.0000    -3.3240 ha         1 0SL       0.132000
     30 H8          -2.4360     3.0840    -2.5340 h1         1 0SL       0.034200
     31 H9          -3.0720     1.5980    -3.2630 h1         1 0SL       0.034200
     32 H10         -3.0690     1.5830     0.9210 h1         1 0SL       0.007700
     33 H11         -2.4340     3.0750     0.2010 h1         1 0SL       0.007700
     34 H12         -5.3020     2.0710     0.0640 hc         1 0SL       0.007700
     35 H13         -4.7180     3.4800     0.9680 hc         1 0SL       0.007700
     36 H14         -3.9940     4.5250    -1.1630 hc         1 0SL       0.021700
     37 H15         -5.7330     4.1850    -1.1630 hc         1 0SL       0.021700
     38 H16         -5.3040     2.0800    -2.3990 hc         1 0SL       0.030700
@<TRIPOS>BOND
     1     1     2 ar  
     2     1    10 ar  
     3     1    23 1   
     4     2     3 ar  
     5     2     7 ar  
     6     3     4 ar  
     7     3    24 1   
     8     4     5 ar  
     9     4    25 1   
    10     5     6 ar  
    11     5    26 1   
    12     6     7 ar  
    13     6    27 1   
    14     7     8 ar  
    15     8     9 ar  
    16     8    28 1   
    17     9    10 ar  
    18     9    29 1   
    19    10    11 1   
    20    11    12 2   
    21    11    13 2   
    22    11    14 1   
    23    14    15 1   
    24    14    16 1   
    25    15    19 1   
    26    15    30 1   
    27    15    31 1   
    28    16    17 1   
    29    16    32 1   
    30    16    33 1   
    31    17    18 1   
    32    17    34 1   
    33    17    35 1   
    34    18    19 1   
    35    18    36 1   
    36    18    37 1   
    37    19    20 1   
    38    19    38 1   
    39    20    21 1   
    40    20    22 1   
@<TRIPOS>SUBSTRUCTURE
     1 0SL         1 TEMP              0 ****  ****    0 ROOT
