@<TRIPOS>MOLECULE
molecule
   38    40     1     0     0
SMALL
bcc


@<TRIPOS>ATOM
      1 CAK          0.0000     0.0000     0.0000 ca         1 0SL      -0.006000
      2 CAS          1.4050     0.0000     0.0000 ca         1 0SL      -0.065000
      3 CAI          2.1350     0.0000     1.2000 ca         1 0SL      -0.099000
      4 CAF          3.4950     0.0000     1.1610 ca         1 0SL      -0.145000
      5 CAE          4.1790     0.0010    -0.0550 ca         1 0SL      -0.118000
      6 CAH          3.5050     0.0010    -1.2360 ca         1 0SL      -0.127000
      7 CAR          2.1000     0.0010    -1.2360 ca         1 0SL       0.001000
      8 CAJ          1.3690     0.0010    -2.4370 ca         1 0SL      -0.142000
      9 CAG          0.0090     0.0000    -2.3970 ca         1 0SL      -0.035000
     10 CAQ         -0.6740    -0.0010    -1.1820 ca         1 0SL      -0.297500
     11 SAV         -2.4360    -0.0100    -1.1770 sy         1 0SL       1.415200
     12 OAB         -2.8380    -0.5520    -2.4270 o          1 0SL      -0.647300
     13 OAC         -2.8310    -0.5590     0.0730 o          1 0SL      -0.647300
     14 NAU         -2.9340     1.5700    -1.1720 n3         1 0SL      -0.812500
     15 CAO         -3.1630     2.2870    -2.4330 c3         1 0SL       0.242800
     16 CAN         -3.1610     2.2780     0.0950 c3         1 0SL       0.235800
     17 CAL         -4.5740     2.8730     0.0820 c3         1 0SL      -0.096400
     18 CAM         -4.7440     3.7430    -1.1650 c3         1 0SL      -0.056400
     19 CAT         -4.5750     2.8820    -2.4130 c3         1 0SL      -0.177700
     20 CAP         -4.7740     3.7300    -3.6420 c          1 0SL       0.896600
     21 OAD         -3.8830     3.8440    -4.4500 o          1 0SL      -0.847300
     22 OAA         -5.9420     4.3610    -3.8400 o          1 0SL      -0.847300
     23 H1          -0.5440    -0.0010     0.9370 ha         1 0SL       0.149000
     24 H2           1.6180    -0.0000     2.1520 ha         1 0SL       0.132000
     25 H3           4.0560     0.0000     2.0880 ha         1 0SL       0.123000
     26 H4           5.2620     0.0010    -0.0580 ha         1 0SL       0.122000
     27 H5           4.0490     0.0010    -2.1730 ha         1 0SL       0.131000
     28 H6           1.8860     0.0020    -3.3890 ha         1 0SL       0.134000
     29 H7          -0.5520    -0.0000    -3.3240 ha         1 0SL       0.159000
     30 H8          -2.4360     3.0840    -2.5340 h1         1 0SL       0.063700
     31 H9          -3.0720     1.5980    -3.2630 h1         1 0SL       0.063700
     32 H10         -3.0690     1.5830     0.9210 h1         1 0SL       0.037700
     33 H11         -2.4340     3.0750     0.2010 h1         1 0SL       0.037700
     34 H12         -5.3020     2.0710     0.0640 hc         1 0SL       0.035200
     35 H13         -4.7180     3.4800     0.9680 hc         1 0SL       0.035200
     36 H14         -3.9940     4.5250    -1.1630 hc         1 0SL       0.049200
     37 H15         -5.7330     4.1850    -1.1630 hc         1 0SL       0.049200
     38 H16         -5.3040     2.0800    -2.3990 hc         1 0SL       0.051700
@<TRIPOS>BOND
     1    21    20 1   
     2    18    17 1   
     3    18    19 1   
     4    17    16 1   
     5    20    19 1   
     6    20    22 1   
     7    19    15 1   
     8    16    14 1   
     9    15    14 1   
    10     5     6 ar  
    11     5     4 ar  
    12    14    11 1   
    13     6     7 ar  
    14     4     3 ar  
    15     7     8 ar  
    16     7     2 ar  
    17     3     2 ar  
    18     8     9 ar  
    19     2     1 ar  
    20     9    10 ar  
    21     1    10 ar  
    22    10    11 1   
    23    11    12 2   
    24    11    13 2   
    25     1    23 1   
    26     3    24 1   
    27     4    25 1   
    28     5    26 1   
    29     6    27 1   
    30     8    28 1   
    31     9    29 1   
    32    15    30 1   
    33    15    31 1   
    34    16    32 1   
    35    16    33 1   
    36    17    34 1   
    37    17    35 1   
    38    18    36 1   
    39    18    37 1   
    40    19    38 1   
@<TRIPOS>SUBSTRUCTURE
     1 0SL         1 TEMP              0 ****  ****    0 ROOT
