@<TRIPOS>MOLECULE
molecule
   93    92     1     0     0
SMALL
bcc


@<TRIPOS>ATOM
      1 C1           0.0000     0.0000     0.0000 c3         1 0SM       0.214400
      2 C3           3.5700    -0.0000     1.4430 c3         1 0SM      -0.133100
      3 C4          -3.4810    -3.0890     2.4890 c3         1 0SM       0.201400
      4 C5          -3.2830    -4.2710     3.4400 c3         1 0SM       0.094800
      5 C6          -3.3260    -2.6880     5.2430 c3         1 0SM       0.098100
      6 C7          -2.5150    -4.9140     5.6210 c3         1 0SM       0.098100
      7 C8          -1.2300    -3.3760     4.3020 c3         1 0SM       0.098100
      8 C11          3.2410    -1.1950    -1.2580 c          1 0SM       0.654100
      9 C12          3.7430    -2.4260    -1.9670 c3         1 0SM      -0.157400
     10 C13          5.1460    -2.1610    -2.5180 c3         1 0SM      -0.066400
     11 C14          5.6570    -3.4100    -3.2380 c3         1 0SM      -0.085400
     12 C15          7.0590    -3.1450    -3.7880 c3         1 0SM      -0.080400
     13 C16          7.5690    -4.3940    -4.5080 c3         1 0SM      -0.082400
     14 C17          8.9720    -4.1300    -5.0580 c3         1 0SM      -0.082400
     15 C18          9.4820    -5.3790    -5.7790 c3         1 0SM      -0.082400
     16 C19         10.8840    -5.1140    -6.3290 c3         1 0SM      -0.082400
     17 C20         11.3950    -6.3630    -7.0490 c3         1 0SM      -0.082400
     18 C21         12.7980    -6.0990    -7.6000 c3         1 0SM      -0.081400
     19 C22         13.3080    -7.3480    -8.3200 c3         1 0SM      -0.081400
     20 C23         14.7100    -7.0830    -8.8700 c3         1 0SM      -0.082400
     21 C24         15.2210    -8.3320    -9.5900 c3         1 0SM      -0.082400
     22 C25         16.6240    -8.0670   -10.1400 c3         1 0SM      -0.082400
     23 C26         17.1330    -9.3170   -10.8610 c3         1 0SM      -0.081400
     24 C27         18.5360    -9.0510   -11.4120 c3         1 0SM      -0.084400
     25 C28         19.0470   -10.3010   -12.1320 c3         1 0SM      -0.092100
     26 N           -2.5890    -3.8120     4.6510 n4         1 0SM      -0.569800
     27 O2           1.5620    -1.1660     2.1170 oh         1 0SM      -0.582800
     28 O11          3.9360    -0.2040    -1.1980 o          1 0SM      -0.635100
     29 O1P         -2.7130    -1.7930    -0.4250 o          1 0SM      -0.798000
     30 O2P         -2.7080    -0.2120     1.5440 o          1 0SM      -0.798000
     31 O3P         -0.4770    -1.1030     0.7740 os         1 0SM      -0.594200
     32 NBQ          2.0180    -1.1970    -0.6890 ns         1 0SM      -0.560900
     33 O4P         -2.2110    -2.6420     2.0130 os         1 0SM      -0.609200
     34 CBV          1.5310     0.0000     0.0000 c3         1 0SM       0.119700
     35 P           -2.0420    -1.4110     0.9890 p5         1 0SM       1.329800
     36 CBU          2.0390     0.0000     1.4430 c3         1 0SM       0.139100
     37 H11C        -0.3610    -0.0900    -1.0170 h1         1 0SM       0.046200
     38 H12C        -0.3610     0.9260     0.4310 h1         1 0SM       0.046200
     39 HBV          1.8920     0.8840    -0.5110 h1         1 0SM       0.083700
     40 H31C         3.9310     0.2630     2.4300 hc         1 0SM       0.045367
     41 H32C         3.9310    -0.9860     1.1780 hc         1 0SM       0.045367
     42 H33C         3.9310     0.7230     0.7220 hc         1 0SM       0.045367
     43 HBU          1.6780     0.8850     1.9540 h1         1 0SM       0.031700
     44 H41C        -4.0920    -3.4000     1.6500 h1         1 0SM       0.070200
     45 H42C        -3.9740    -2.2810     3.0150 h1         1 0SM       0.070200
     46 H51C        -2.6890    -5.0330     2.9500 hx         1 0SM       0.093200
     47 H52C        -4.2470    -4.6830     3.7110 hx         1 0SM       0.093200
     48 H61C        -4.3900    -2.8820     5.1820 hx         1 0SM       0.095033
     49 H62C        -3.0940    -1.7790     4.7020 hx         1 0SM       0.095033
     50 H63C        -3.0390    -2.5740     6.2810 hx         1 0SM       0.095033
     51 H71C        -1.9760    -5.7450     5.1830 hx         1 0SM       0.095033
     52 H72C        -1.9990    -4.5770     6.5110 hx         1 0SM       0.095033
     53 H73C        -3.5170    -5.2320     5.8830 hx         1 0SM       0.095033
     54 H81C        -0.8600    -3.9740     3.4770 hx         1 0SM       0.095033
     55 H82C        -1.2490    -2.3330     4.0120 hx         1 0SM       0.095033
     56 H83C        -0.5790    -3.5010     5.1590 hx         1 0SM       0.095033
     57 H121         3.7790    -3.2550    -1.2710 hc         1 0SM       0.059200
     58 H122         3.0750    -2.6700    -2.7840 hc         1 0SM       0.059200
     59 HBQ          1.4290    -2.0020    -0.7710 hn         1 0SM       0.334500
     60 H131         5.8150    -1.9170    -1.7000 hc         1 0SM       0.056700
     61 H132         5.1110    -1.3320    -3.2140 hc         1 0SM       0.056700
     62 H141         5.6930    -4.2390    -2.5410 hc         1 0SM       0.037700
     63 H142         4.9890    -3.6540    -4.0550 hc         1 0SM       0.037700
     64 H151         7.0230    -2.3160    -4.4840 hc         1 0SM       0.043200
     65 H152         7.7270    -2.9010    -2.9700 hc         1 0SM       0.043200
     66 H161         6.9010    -4.6380    -5.3250 hc         1 0SM       0.039700
     67 H162         7.6050    -5.2230    -3.8110 hc         1 0SM       0.039700
     68 H171         8.9370    -3.3000    -5.7540 hc         1 0SM       0.041700
     69 H172         9.6410    -3.8870    -4.2410 hc         1 0SM       0.041700
     70 H181         8.8140    -5.6220    -6.5960 hc         1 0SM       0.040200
     71 H182         9.5180    -6.2080    -5.0830 hc         1 0SM       0.040200
     72 H191        10.8480    -4.2850    -7.0250 hc         1 0SM       0.041200
     73 H192        11.5520    -4.8700    -5.5120 hc         1 0SM       0.041200
     74 H201        11.4300    -7.1920    -6.3530 hc         1 0SM       0.040200
     75 H202        10.7260    -6.6070    -7.8660 hc         1 0SM       0.040200
     76 H211        13.4660    -5.8550    -6.7820 hc         1 0SM       0.041200
     77 H212        12.7620    -5.2700    -8.2960 hc         1 0SM       0.041200
     78 H221        13.3440    -8.1770    -7.6230 hc         1 0SM       0.040700
     79 H222        12.6400    -7.5920    -9.1370 hc         1 0SM       0.040700
     80 H231        15.3780    -6.8390    -8.0520 hc         1 0SM       0.041200
     81 H232        14.6740    -6.2540    -9.5660 hc         1 0SM       0.041200
     82 H241        15.2570    -9.1610    -8.8940 hc         1 0SM       0.040700
     83 H242        14.5530    -8.5760   -10.4080 hc         1 0SM       0.040700
     84 H251        17.2920    -7.8240    -9.3230 hc         1 0SM       0.040700
     85 H252        16.5880    -7.2380   -10.8360 hc         1 0SM       0.040700
     86 H261        17.1690   -10.1460   -10.1650 hc         1 0SM       0.040700
     87 H262        16.4650    -9.5600   -11.6780 hc         1 0SM       0.040700
     88 H271        19.2050    -8.8070   -10.5950 hc         1 0SM       0.039700
     89 H272        18.5000    -8.2220   -12.1090 hc         1 0SM       0.039700
     90 H281        19.0900   -11.1280   -11.4330 hc         1 0SM       0.032367
     91 H282        18.3740   -10.5500   -12.9440 hc         1 0SM       0.032367
     92 H283        20.0370   -10.1110   -12.5280 hc         1 0SM       0.032367
     93 H2           1.8210    -1.1330     3.0230 ho         1 0SM       0.373000
@<TRIPOS>BOND
     1     1    31 1   
     2     1    34 1   
     3     2    36 1   
     4     3     4 1   
     5     3    33 1   
     6     4    26 1   
     7     5    26 1   
     8     6    26 1   
     9     7    26 1   
    10     8     9 1   
    11     8    28 2   
    12     8    32 1   
    13     9    10 1   
    14    10    11 1   
    15    11    12 1   
    16    12    13 1   
    17    13    14 1   
    18    14    15 1   
    19    15    16 1   
    20    16    17 1   
    21    17    18 1   
    22    18    19 1   
    23    19    20 1   
    24    20    21 1   
    25    21    22 1   
    26    22    23 1   
    27    23    24 1   
    28    24    25 1   
    29    27    36 1   
    30    29    35 1   
    31    30    35 1   
    32    31    35 1   
    33    33    35 1   
    34    32    34 1   
    35    34    36 1   
    36     1    37 1   
    37     1    38 1   
    38    34    39 1   
    39     2    40 1   
    40     2    41 1   
    41     2    42 1   
    42    36    43 1   
    43     3    44 1   
    44     3    45 1   
    45     4    46 1   
    46     4    47 1   
    47     5    48 1   
    48     5    49 1   
    49     5    50 1   
    50     6    51 1   
    51     6    52 1   
    52     6    53 1   
    53     7    54 1   
    54     7    55 1   
    55     7    56 1   
    56     9    57 1   
    57     9    58 1   
    58    32    59 1   
    59    10    60 1   
    60    10    61 1   
    61    11    62 1   
    62    11    63 1   
    63    12    64 1   
    64    12    65 1   
    65    13    66 1   
    66    13    67 1   
    67    14    68 1   
    68    14    69 1   
    69    15    70 1   
    70    15    71 1   
    71    16    72 1   
    72    16    73 1   
    73    17    74 1   
    74    17    75 1   
    75    18    76 1   
    76    18    77 1   
    77    19    78 1   
    78    19    79 1   
    79    20    80 1   
    80    20    81 1   
    81    21    82 1   
    82    21    83 1   
    83    22    84 1   
    84    22    85 1   
    85    23    86 1   
    86    23    87 1   
    87    24    88 1   
    88    24    89 1   
    89    25    90 1   
    90    25    91 1   
    91    25    92 1   
    92    27    93 1   
@<TRIPOS>SUBSTRUCTURE
     1 0SM         1 TEMP              0 ****  ****    0 ROOT
