@<TRIPOS>MOLECULE
molecule
   60    62     1     0     0
SMALL
bcc


@<TRIPOS>ATOM
      1 C23          0.0000     0.0000     0.0000 ca         1 0SN      -0.152000
      2 C27         -0.0000     0.0000     2.3950 ca         1 0SN      -0.152000
      3 C24          1.3820     0.0000     0.0000 ca         1 0SN      -0.080500
      4 C26          1.3830     0.0010     2.3950 ca         1 0SN      -0.080500
      5 C5         -11.0530    -9.8080     3.4480 ca         1 0SN      -0.069000
      6 C6         -10.6990    -8.5080     3.2580 ca         1 0SN      -0.132000
      7 C8          -9.7500    -9.0450     1.1160 ca         1 0SN      -0.066000
      8 C22         -0.6910     0.0010     1.1970 ca         1 0SN      -0.128300
      9 C25          2.0740     0.0000     1.1970 ca         1 0SN      -0.022300
     10 C4         -10.7640   -10.7790     2.4700 ca         1 0SN       0.109400
     11 C7         -10.0460    -8.1110     2.0930 ca         1 0SN       0.096600
     12 C9         -10.1070   -10.3780     1.3000 ca         1 0SN      -0.051100
     13 C2         -10.6600   -12.7810     1.4480 cc         1 0SN       0.392200
     14 C12         -8.5890    -5.9070     1.1990 c          1 0SN       0.653100
     15 C17         -4.7420    -2.8610     1.1980 c          1 0SN       0.653100
     16 C30          3.6940     2.1150     2.4830 c          1 0SN       0.912600
     17 C33          5.5940     1.4410     1.0720 c          1 0SN       0.912600
     18 C1         -10.8820   -14.2640     1.2940 c3         1 0SN      -0.097400
     19 C21         -2.1980     0.0010     1.1980 c3         1 0SN      -0.022100
     20 C28          3.5800    -0.0010     1.1980 c3         1 0SN      -0.006100
     21 C14         -8.0860    -4.4860     1.1990 c3         1 0SN      -0.189400
     22 C19         -4.2390    -1.4400     1.1980 c3         1 0SN      -0.159400
     23 C20         -2.7090    -1.4410     1.1980 c3         1 0SN      -0.063400
     24 C15         -6.5560    -4.4880     1.1980 c3         1 0SN       0.127000
     25 C29          4.0920     1.4410     1.1960 c3         1 0SN      -0.253700
     26 N3         -11.0270   -12.1010     2.4660 nd         1 0SN      -0.585100
     27 N11         -9.9140    -6.1530     1.1990 ns         1 0SN      -0.558100
     28 N16         -6.0680    -3.1060     1.1980 ns         1 0SN      -0.608900
     29 O13         -7.8020    -6.8300     1.1980 o          1 0SN      -0.590100
     30 O18         -3.9540    -3.7830     1.1980 o          1 0SN      -0.593100
     31 O31          4.5430     2.5520     3.2240 o          1 0SN      -0.862050
     32 O34          6.1940     0.3950     0.9930 o          1 0SN      -0.862050
     33 O32          2.3960     2.2320     2.8080 o          1 0SN      -0.862050
     34 O35          6.2650     2.6030     1.0500 o          1 0SN      -0.862050
     35 S10         -9.8900   -11.7990     0.2830 ss         1 0SN      -0.088100
     36 H23         -0.5420     0.0000    -0.9380 ha         1 0SN       0.093500
     37 H24          1.9240    -0.0010    -0.9380 ha         1 0SN       0.133500
     38 H27         -0.5420     0.0010     3.3330 ha         1 0SN       0.093500
     39 H26          1.9240     0.0010     3.3330 ha         1 0SN       0.133500
     40 H8          -9.2420    -8.7390     0.2100 ha         1 0SN       0.175000
     41 H211        -2.5590     0.5120     0.3130 hc         1 0SN       0.028200
     42 H212        -2.5590     0.5130     2.0820 hc         1 0SN       0.028200
     43 H281         3.9400    -0.5110     2.0830 hc         1 0SN       0.036200
     44 H282         3.9410    -0.5140     0.3140 hc         1 0SN       0.036200
     45 H11        -10.6970    -5.5310     1.2400 hn         1 0SN       0.301500
     46 H11C       -10.3620   -14.7910     2.0840 hc         1 0SN       0.057367
     47 H12C       -11.9420   -14.4790     1.3530 hc         1 0SN       0.057367
     48 H13C       -10.5020   -14.5880     0.3330 hc         1 0SN       0.057367
     49 H141        -8.4470    -3.9760     0.3140 hc         1 0SN       0.058200
     50 H142        -8.4460    -3.9750     2.0830 hc         1 0SN       0.058200
     51 H191        -4.6000    -0.9290     0.3130 hc         1 0SN       0.051200
     52 H192        -4.6000    -0.9290     2.0820 hc         1 0SN       0.051200
     53 H16         -6.7170    -2.3460     1.2340 hn         1 0SN       0.301500
     54 H29          3.6600     1.9760     0.3590 hc         1 0SN       0.037700
     55 H201        -2.3480    -1.9530     0.3140 hc         1 0SN       0.061200
     56 H202        -2.3490    -1.9520     2.0830 hc         1 0SN       0.061200
     57 H151        -6.1950    -4.9990     0.3140 h1         1 0SN       0.067200
     58 H152        -6.1950    -4.9980     2.0830 h1         1 0SN       0.067200
     59 H5         -11.5600   -10.0980     4.3600 ha         1 0SN       0.151000
     60 H6         -10.9290    -7.7730     4.0200 ha         1 0SN       0.146000
@<TRIPOS>BOND
     1     1     3 ar
     2     1     8 ar
     3     2     4 ar
     4     2     8 ar
     5     3     9 ar
     6     4     9 ar
     7     5     6 ar
     8     5    10 ar
     9     6    11 ar
    10     7    11 ar
    11     7    12 ar
    12     8    19 1
    13     9    20 1
    14    10    12 ar
    15    10    26 1
    16    11    27 1
    17    12    35 1
    18    13    18 1
    19    13    26 2
    20    13    35 1
    21    14    21 1
    22    14    27 1
    23    14    29 2
    24    15    22 1
    25    15    28 1
    26    15    30 2
    27    16    25 1
    28    16    31 1
    29    16    33 1
    30    17    25 1
    31    17    32 1
    32    17    34 1
    33    19    23 1
    34    20    25 1
    35    21    24 1
    36    22    23 1
    37    24    28 1
    38     1    36 1
    39     3    37 1
    40     2    38 1
    41     4    39 1
    42     5    59 1
    43     6    60 1
    44     7    40 1
    45    19    41 1
    46    19    42 1
    47    20    43 1
    48    20    44 1
    49    27    45 1
    50    18    46 1
    51    18    47 1
    52    18    48 1
    53    21    49 1
    54    21    50 1
    55    22    51 1
    56    22    52 1
    57    28    53 1
    58    25    54 1
    59    23    55 1
    60    23    56 1
    61    24    57 1
    62    24    58 1
@<TRIPOS>SUBSTRUCTURE
     1 0SN         1 TEMP              0 ****  ****    0 ROOT
