@<TRIPOS>MOLECULE
molecule
   66    67     1     0     0
SMALL
bcc


@<TRIPOS>ATOM
      1 O27          0.0000     0.0000     0.0000 o          1 0SO      -0.613000
      2 C25          1.2150     0.0000     0.0000 c          1 0SO       0.754100
      3 O26          1.8880     0.0000     1.1660 os         1 0SO      -0.439900
      4 C28          1.0980     0.0010     2.3840 c3         1 0SO       0.178800
      5 C31          2.0310     0.0020     3.5970 c3         1 0SO      -0.105433
      6 C30          0.2160     1.2500     2.4180 c3         1 0SO      -0.105433
      7 C29          0.2160    -1.2480     2.4200 c3         1 0SO      -0.105433
      8 N24          1.8890    -0.0070    -1.1670 ns         1 0SO      -0.579900
      9 C23          1.1560    -0.0130    -2.4360 c3         1 0SO       0.137000
     10 C22          2.1490    -0.0200    -3.5990 c3         1 0SO      -0.124400
     11 C21          1.3840    -0.0270    -4.9240 c3         1 0SO       0.136000
     12 N19          2.3350    -0.0330    -6.0370 ns         1 0SO      -0.602900
     13 C18          1.8850    -0.0410    -7.3090 c          1 0SO       0.790100
     14 O20          0.6900    -0.0410    -7.5290 o          1 0SO      -0.630100
     15 N17          2.7610    -0.0460    -8.3330 ns         1 0SO      -0.474100
     16 C11          2.2950    -0.0530    -9.6480 cc         1 0SO       0.080300
     17 C12          0.9920    -0.0550   -10.0400 cd         1 0SO      -0.341300
     18 C10          0.9660    -0.0620   -11.4380 cd         1 0SO       0.366600
     19 C13         -0.2740    -0.0670   -12.2950 c3         1 0SO      -0.083300
     20 C16          0.0990    -0.4480   -13.7300 c3         1 0SO      -0.080433
     21 C15         -1.2740    -1.0830   -11.7410 c3         1 0SO      -0.080433
     22 C14         -0.9050     1.3270   -12.2860 c3         1 0SO      -0.080433
     23 N9           2.1990    -0.0650   -11.8770 nc         1 0SO      -0.506800
     24 N8           3.0610    -0.0530   -10.7730 na         1 0SO       0.114300
     25 C4           4.4620    -0.0470   -10.8190 ca         1 0SO       0.038800
     26 C2           5.1280    -0.7370   -11.8230 ca         1 0SO      -0.145000
     27 C6           5.1860     0.6540    -9.8640 ca         1 0SO      -0.145000
     28 C5           6.5670     0.6580    -9.9120 ca         1 0SO      -0.110000
     29 C3           7.2270    -0.0350   -10.9100 ca         1 0SO      -0.093300
     30 C7           8.7330    -0.0270   -10.9590 c3         1 0SO      -0.047800
     31 C1           6.5090    -0.7290   -11.8660 ca         1 0SO      -0.110000
     32 H1           1.4410     0.0050     4.5050 hc         1 0SO       0.049811
     33 H2           2.6540    -0.8840     3.5740 hc         1 0SO       0.049811
     34 H3           2.6580     0.8850     3.5690 hc         1 0SO       0.049811
     35 H4          -0.0380     1.4860     3.4440 hc         1 0SO       0.049811
     36 H5           0.7520     2.0830     1.9780 hc         1 0SO       0.049811
     37 H6          -0.6910     1.0670     1.8540 hc         1 0SO       0.049811
     38 H7          -0.6880    -1.0680     1.8510 hc         1 0SO       0.049811
     39 H8           0.7540    -2.0830     1.9890 hc         1 0SO       0.049811
     40 H9          -0.0440    -1.4770     3.4470 hc         1 0SO       0.049811
     41 H10          0.5320    -0.8980    -2.4880 h1         1 0SO       0.059700
     42 H11          2.7720    -0.9050    -3.5370 hc         1 0SO       0.051200
     43 H12          2.7730     0.8640    -3.5470 hc         1 0SO       0.051200
     44 H13          0.7610     0.8570    -4.9860 h1         1 0SO       0.060700
     45 H14          0.7610    -0.9120    -4.9770 h1         1 0SO       0.060700
     46 H15          3.3190    -0.0410    -5.8550 hn         1 0SO       0.307500
     47 H16          3.7440    -0.1000    -8.1500 hn         1 0SO       0.324500
     48 H17          0.1310    -0.1230    -9.3870 ha         1 0SO       0.203000
     49 H18          0.7680     0.2990   -14.1400 hc         1 0SO       0.039811
     50 H19         -0.7980    -0.5000   -14.3340 hc         1 0SO       0.039811
     51 H20          0.5910    -1.4130   -13.7300 hc         1 0SO       0.039811
     52 H21         -2.0700    -1.2350   -12.4600 hc         1 0SO       0.039811
     53 H22         -1.6920    -0.7100   -10.8140 hc         1 0SO       0.039811
     54 H23         -0.7690    -2.0230   -11.5570 hc         1 0SO       0.039811
     55 H24         -1.7470     1.3470   -12.9680 hc         1 0SO       0.039811
     56 H25         -0.1700     2.0590   -12.5990 hc         1 0SO       0.039811
     57 H26         -1.2460     1.5630   -11.2850 hc         1 0SO       0.039811
     58 H27          4.5660    -1.2810   -12.5720 ha         1 0SO       0.146000
     59 H28          4.6680     1.1970    -9.0830 ha         1 0SO       0.146000
     60 H29          7.1330     1.2050    -9.1680 ha         1 0SO       0.136500
     61 H30          9.1240    -0.6110   -10.1350 hc         1 0SO       0.045033
     62 H31          9.0920     0.9920   -10.8820 hc         1 0SO       0.045033
     63 H32          9.0660    -0.4570   -11.8960 hc         1 0SO       0.045033
     64 H33          7.0290    -1.2690   -12.6480 ha         1 0SO       0.136500
     65 H34          2.8890     0.0170    -1.1680 hn         1 0SO       0.321500
     66 H35          0.5340     0.8710    -2.4970 h1         1 0SO       0.059700
@<TRIPOS>BOND
     1     5     4 1
     2     6     4 1
     3     4     7 1
     4     4     3 1
     5     3     2 1
     6     2     1 2
     7     2     8 1
     8     8     9 1
     9     9    10 1
    10    10    11 1
    11    11    12 1
    12    12    13 1
    13    14    13 2
    14    13    15 1
    15    15    16 1
    16    27    28 ar
    17    27    25 ar
    18    28    29 ar
    19    16    17 2
    20    16    24 1
    21    17    18 1
    22    24    25 1
    23    24    23 1
    24    21    19 1
    25    25    26 ar
    26    29    30 1
    27    29    31 ar
    28    18    23 2
    29    18    19 1
    30    19    22 1
    31    19    20 1
    32    26    31 ar
    33     5    32 1
    34     5    33 1
    35     5    34 1
    36     6    35 1
    37     6    36 1
    38     6    37 1
    39     7    38 1
    40     7    39 1
    41     7    40 1
    42     9    41 1
    43    10    42 1
    44    10    43 1
    45    11    44 1
    46    11    45 1
    47    12    46 1
    48    15    47 1
    49    17    48 1
    50    20    49 1
    51    20    50 1
    52    20    51 1
    53    21    52 1
    54    21    53 1
    55    21    54 1
    56    22    55 1
    57    22    56 1
    58    22    57 1
    59    26    58 1
    60    27    59 1
    61    28    60 1
    62    30    61 1
    63    30    62 1
    64    30    63 1
    65    31    64 1
    66     8    65 1
    67     9    66 1
@<TRIPOS>SUBSTRUCTURE
     1 0SO         1 TEMP              0 ****  ****    0 ROOT
