@<TRIPOS>MOLECULE
0SO
   68    69     1     0     0
SMALL
bcc


@<TRIPOS>ATOM
      1 O27          0.3410    -0.3020    -0.2960 o          1 0SO      -0.423000
      2 C25          1.5130    -0.4000     0.0280 c          1 0SO       0.646100
      3 O26          2.1030    -0.4450     1.2090 os         1 0SO      -0.422900
      4 C28          1.2620    -0.3000     2.4740 c3         1 0SO       0.218800
      5 C31          0.5860     1.0490     2.4380 c3         1 0SO      -0.136433
      6 C30          2.3460    -0.3880     3.5300 c3         1 0SO      -0.136433
      7 C29          0.2930    -1.4560     2.5280 c3         1 0SO      -0.136433
      8 N24          2.5860    -0.4910    -1.0630 ny         1 0SO      -0.662800
      9 C23          2.1190    -1.3240    -2.2040 c3         1 0SO       0.107800
     10 C22          3.0430    -1.2600    -3.4200 c3         1 0SO      -0.134400
     11 C21          2.4500    -2.1530    -4.5090 c3         1 0SO       0.106800
     12 N19          3.2860    -2.2350    -5.7350 ny         1 0SO      -0.689800
     13 C18          2.7420    -3.3970    -6.6530 c          1 0SO       0.639100
     14 O20          3.0760    -4.4960    -6.2210 o          1 0SO      -0.441100
     15 N17          1.8900    -3.0180    -7.6660 ns         1 0SO      -0.334100
     16 C11          1.4240    -4.0090    -8.5520 cc         1 0SO      -0.136700
     17 C12          0.2280    -4.7590    -8.4640 cd         1 0SO      -0.185300
     18 C10          0.2050    -5.5530    -9.6680 cd         1 0SO       0.332600
     19 C13         -0.8650    -6.5220   -10.0720 c3         1 0SO      -0.079300
     20 C16         -1.4650    -6.0930   -11.4070 c3         1 0SO      -0.091767
     21 C15         -1.9630    -6.5510    -9.0160 c3         1 0SO      -0.091767
     22 C14         -0.2630    -7.9170   -10.2100 c3         1 0SO      -0.091767
     23 N9           1.3260    -5.2990   -10.4170 nc         1 0SO      -0.417800
     24 N8           2.0640    -4.4050    -9.7640 na         1 0SO       0.182300
     25 C4           3.3000    -3.8750   -10.2510 ca         1 0SO      -0.045200
     26 C2           3.3590    -3.2690   -11.5200 ca         1 0SO      -0.120500
     27 C6           4.4710    -4.0020    -9.4770 ca         1 0SO      -0.120500
     28 C5           5.6730    -3.5010    -9.9640 ca         1 0SO      -0.125500
     29 C3           5.7400    -2.8850   -11.2210 ca         1 0SO      -0.036300
     30 C7           7.0310    -2.3880   -11.7480 c3         1 0SO      -0.072800
     31 C1           4.5740    -2.7760   -11.9880 ca         1 0SO      -0.125500
     32 H1           0.0590     1.2140     3.4120 hc         1 0SO       0.080367
     33 H2           1.3340     1.8670     2.3010 hc         1 0SO       0.080367
     34 H3          -0.1720     1.0980     1.6180 hc         1 0SO       0.080367
     35 H4           2.8780    -1.3680     3.4740 hc         1 0SO       0.080367
     36 H5           1.8610    -0.2950     4.5340 hc         1 0SO       0.080367
     37 H6           3.0890     0.4370     3.4090 hc         1 0SO       0.080367
     38 H7          -0.2470    -1.4250     3.5090 hc         1 0SO       0.080367
     39 H8          -0.4640    -1.3860     1.7090 hc         1 0SO       0.080367
     40 H9           0.8320    -2.4310     2.4540 hc         1 0SO       0.080367
     41 H10          2.0350    -2.3890    -1.8350 hx         1 0SO       0.129700
     42 H11          3.1290    -0.2020    -3.7890 hc         1 0SO       0.086700
     43 H12          4.0740    -1.6140    -3.1440 hc         1 0SO       0.086700
     44 H13          2.3320    -3.2080    -4.1140 hx         1 0SO       0.125700
     45 H14          1.4310    -1.7710    -4.8110 hx         1 0SO       0.125700
     46 H15          3.3070    -1.3350    -6.2150 hn         1 0SO       0.456800
     47 H16          1.9790    -2.1010    -8.0640 hn         1 0SO       0.348500
     48 H17         -0.5200    -4.7360    -7.6780 ha         1 0SO       0.183000
     49 H18         -1.8790    -5.0590   -11.3360 hc         1 0SO       0.047700
     50 H19         -2.2910    -6.7900   -11.6860 hc         1 0SO       0.047700
     51 H20         -0.6930    -6.1190   -12.2130 hc         1 0SO       0.047700
     52 H21         -2.7560    -7.2750    -9.3250 hc         1 0SO       0.047700
     53 H22         -1.5530    -6.8770    -8.0300 hc         1 0SO       0.047700
     54 H23         -2.4290    -5.5430    -8.9030 hc         1 0SO       0.047700
     55 H24         -1.0680    -8.6460   -10.4720 hc         1 0SO       0.047700
     56 H25          0.5080    -7.9350   -11.0170 hc         1 0SO       0.047700
     57 H26          0.2090    -8.2350    -9.2510 hc         1 0SO       0.047700
     58 H27          2.4600    -3.2000   -12.1550 ha         1 0SO       0.150000
     59 H28          4.4520    -4.5390    -8.5160 ha         1 0SO       0.150000
     60 H29          6.5920    -3.6210    -9.3690 ha         1 0SO       0.155000
     61 H30          7.7520    -2.1730   -10.9220 hc         1 0SO       0.064033
     62 H31          6.8860    -1.4550   -12.3480 hc         1 0SO       0.064033
     63 H32          7.4870    -3.1630   -12.4170 hc         1 0SO       0.064033
     64 H33          4.6200    -2.3090   -12.9860 ha         1 0SO       0.155000
     65 H34          3.4440    -0.8810    -0.6520 hn         1 0SO       0.469800
     66 H35          1.0820    -0.9670    -2.4860 hx         1 0SO       0.129700
     67 H242         2.7850     0.4660    -1.3790 hn         1 0SO       0.469800
     68 H192         4.2470    -2.4960    -5.4820 hn         1 0SO       0.456800
@<TRIPOS>BOND
     1     1     2 2   
     2     2     3 1   
     3     2     8 1   
     4     3     4 1   
     5     4     5 1   
     6     4     6 1   
     7     4     7 1   
     8     5    32 1   
     9     5    33 1   
    10     5    34 1   
    11     6    35 1   
    12     6    36 1   
    13     6    37 1   
    14     7    38 1   
    15     7    39 1   
    16     7    40 1   
    17     8     9 1   
    18     8    65 1   
    19     8    67 1   
    20     9    10 1   
    21     9    41 1   
    22     9    66 1   
    23    10    11 1   
    24    10    42 1   
    25    10    43 1   
    26    11    12 1   
    27    11    44 1   
    28    11    45 1   
    29    12    13 1   
    30    12    46 1   
    31    12    68 1   
    32    13    14 2   
    33    13    15 1   
    34    15    16 1   
    35    15    47 1   
    36    16    17 2   
    37    16    24 1   
    38    17    18 1   
    39    17    48 1   
    40    18    19 1   
    41    18    23 2   
    42    19    20 1   
    43    19    21 1   
    44    19    22 1   
    45    20    49 1   
    46    20    50 1   
    47    20    51 1   
    48    21    52 1   
    49    21    53 1   
    50    21    54 1   
    51    22    55 1   
    52    22    56 1   
    53    22    57 1   
    54    23    24 1   
    55    24    25 1   
    56    25    26 ar  
    57    25    27 ar  
    58    26    31 ar  
    59    26    58 1   
    60    27    28 ar  
    61    27    59 1   
    62    28    29 ar  
    63    28    60 1   
    64    29    30 1   
    65    29    31 ar  
    66    30    61 1   
    67    30    62 1   
    68    30    63 1   
    69    31    64 1   
@<TRIPOS>SUBSTRUCTURE
     1 0SO         1 TEMP              0 ****  ****    0 ROOT
