@<TRIPOS>MOLECULE
0SQ
   41    42     1     0     0
SMALL
bcc


@<TRIPOS>ATOM
      1 O14          0.2420    -0.3120    -0.0680 o          1 0SQ      -0.446100
      2 C12          1.4210    -0.0310    -0.2730 c          1 0SQ       0.626100
      3 N13          2.2320     0.0810     1.0410 nz         1 0SQ      -0.761400
      4 N11          2.0670     0.3450    -1.4320 ns         1 0SQ      -0.345100
      5 C1           1.4440     0.0800    -2.6660 cc         1 0SQ      -0.095700
      6 C3           0.1410     0.4060    -3.0950 cd         1 0SQ      -0.203300
      7 C5           0.0820    -0.0560    -4.4670 cd         1 0SQ       0.339600
      8 C6          -1.1250     0.0690    -5.3480 c3         1 0SQ      -0.081300
      9 C9          -1.4930     1.5440    -5.4630 c3         1 0SQ      -0.089100
     10 C8          -0.8690    -0.4920    -6.7410 c3         1 0SQ      -0.089100
     11 C7          -2.2780    -0.6980    -4.7060 c3         1 0SQ      -0.089100
     12 N4           1.2730    -0.6180    -4.8240 nc         1 0SQ      -0.435800
     13 N2           2.0750    -0.6050    -3.7540 na         1 0SQ       0.168300
     14 C10          3.4770    -0.8810    -3.8000 ca         1 0SQ      -0.032200
     15 C19          4.0530    -1.7080    -2.8150 ca         1 0SQ      -0.125500
     16 C18          5.4140    -1.9850    -2.8560 ca         1 0SQ      -0.121000
     17 C17          6.2240    -1.4630    -3.8740 ca         1 0SQ      -0.044300
     18 C20          7.6680    -1.7840    -3.9260 c3         1 0SQ      -0.068800
     19 C15          5.6420    -0.6570    -4.8580 ca         1 0SQ      -0.121000
     20 C16          4.2810    -0.3630    -4.8330 ca         1 0SQ      -0.125500
     21 H1           2.5910     1.0290     1.1720 hn         1 0SQ       0.469467
     22 H2           1.5880    -0.1440     1.8130 hn         1 0SQ       0.469467
     23 H3           3.0710     0.3740    -1.4540 hn         1 0SQ       0.349500
     24 H4          -0.6530     0.8810    -2.5270 ha         1 0SQ       0.189000
     25 H5          -2.4150     1.6530    -6.0840 hc         1 0SQ       0.046033
     26 H6          -1.6890     1.9800    -4.4540 hc         1 0SQ       0.046033
     27 H7          -0.6670     2.1160    -5.9480 hc         1 0SQ       0.046033
     28 H8          -0.6080    -1.5760    -6.6890 hc         1 0SQ       0.046033
     29 H9          -1.7900    -0.3770    -7.3620 hc         1 0SQ       0.046033
     30 H10         -0.0340     0.0570    -7.2390 hc         1 0SQ       0.046033
     31 H11         -2.4880    -0.3040    -3.6830 hc         1 0SQ       0.046033
     32 H12         -3.1970    -0.5820    -5.3300 hc         1 0SQ       0.046033
     33 H13         -2.0310    -1.7830    -4.6320 hc         1 0SQ       0.046033
     34 H14          3.4280    -2.1830    -2.0440 ha         1 0SQ       0.146500
     35 H15          5.8580    -2.6440    -2.0930 ha         1 0SQ       0.152000
     36 H16          8.0590    -2.0600    -2.9160 hc         1 0SQ       0.061033
     37 H17          8.2570    -0.9150    -4.3110 hc         1 0SQ       0.061033
     38 H18          7.8370    -2.6520    -4.6150 hc         1 0SQ       0.061033
     39 H19          6.2670    -0.2530    -5.6720 ha         1 0SQ       0.152000
     40 H20          3.8430     0.2600    -5.6310 ha         1 0SQ       0.146500
     41 H133         3.0090    -0.5820     1.0480 hn         1 0SQ       0.469467
@<TRIPOS>BOND
     1     1     2 2   
     2     2     3 1   
     3     2     4 1   
     4     3    21 1   
     5     3    22 1   
     6     3    41 1   
     7     4     5 1   
     8     4    23 1   
     9     5     6 2   
    10     5    13 1   
    11     6     7 1   
    12     6    24 1   
    13     7     8 1   
    14     7    12 2   
    15     8     9 1   
    16     8    10 1   
    17     8    11 1   
    18     9    25 1   
    19     9    26 1   
    20     9    27 1   
    21    10    28 1   
    22    10    29 1   
    23    10    30 1   
    24    11    31 1   
    25    11    32 1   
    26    11    33 1   
    27    12    13 1   
    28    13    14 1   
    29    14    15 ar  
    30    14    20 ar  
    31    15    16 ar  
    32    15    34 1   
    33    16    17 ar  
    34    16    35 1   
    35    17    18 1   
    36    17    19 ar  
    37    18    36 1   
    38    18    37 1   
    39    18    38 1   
    40    19    20 ar  
    41    19    39 1   
    42    20    40 1   
@<TRIPOS>SUBSTRUCTURE
     1 0SQ         1 TEMP              0 ****  ****    0 ROOT
