@<TRIPOS>MOLECULE
0SQ
   41    42     1     0     0
SMALL
bcc


@<TRIPOS>ATOM
      1 O14          0.0000     0.0000     0.0000 o          1 0SQ      -0.523100
      2 C12          1.2150     0.0000     0.0000 c          1 0SQ       0.247100
      3 N13          1.8890     0.0000     1.1670 nz         1 0SQ       0.223600
      4 N11          1.8890    -0.0040    -1.1670 ns         1 0SQ       0.116900
      5 C1           1.1910    -0.0100    -2.3760 cc         1 0SQ      -0.348700
      6 C3          -0.1620    -0.0100    -2.5240 cd         1 0SQ      -0.271300
      7 C5          -0.4440    -0.0160    -3.8930 cd         1 0SQ       0.394600
      8 C6          -1.8180    -0.0180    -4.5090 c3         1 0SQ      -0.089300
      9 C9          -2.7010    -1.0360    -3.7830 c3         1 0SQ       0.007567
     10 C8          -2.4360     1.3750    -4.3830 c3         1 0SQ       0.007567
     11 C7          -1.7140    -0.3980    -5.9880 c3         1 0SQ       0.007567
     12 N4           0.6890    -0.0170    -4.5490 nc         1 0SQ      -0.582800
     13 N2           1.7380    -0.0090    -3.6220 na         1 0SQ       0.630300
     14 C10          3.1080    -0.0030    -3.9220 ca         1 0SQ      -0.160200
     15 C19          3.9950     0.6870    -3.1090 ca         1 0SQ      -0.107000
     16 C18          5.3440     0.6900    -3.4070 ca         1 0SQ      -0.082000
     17 C17          5.8090     0.0080    -4.5170 ca         1 0SQ      -0.060300
     18 C20          7.2810     0.0150    -4.8400 c3         1 0SQ       0.056200
     19 C15          4.9270    -0.6800    -5.3290 ca         1 0SQ      -0.082000
     20 C16          3.5780    -0.6910    -5.0330 ca         1 0SQ      -0.107000
     21 H1           2.4960    -0.7950     1.2020 hn         1 0SQ       0.240800
     22 H2           1.2400    -0.0430     1.9270 hn         1 0SQ       0.240800
     23 H3           2.8890    -0.0450    -1.1670 hn         1 0SQ       0.179500
     24 H4          -0.8900    -0.0680    -1.7230 ha         1 0SQ       0.181000
     25 H5          -2.8970    -0.6900    -2.7760 hc         1 0SQ       0.012033
     26 H6          -2.1920    -1.9920    -3.7440 hc         1 0SQ       0.012033
     27 H7          -3.6370    -1.1470    -4.3160 hc         1 0SQ       0.012033
     28 H8          -1.7890     2.1020    -4.8590 hc         1 0SQ       0.012033
     29 H9          -3.4060     1.3850    -4.8640 hc         1 0SQ       0.012033
     30 H10         -2.5500     1.6260    -3.3350 hc         1 0SQ       0.012033
     31 H11         -1.0830     0.3190    -6.5000 hc         1 0SQ       0.012033
     32 H12         -1.2820    -1.3870    -6.0770 hc         1 0SQ       0.012033
     33 H13         -2.7020    -0.3930    -6.4320 hc         1 0SQ       0.012033
     34 H14          3.6220     1.2810    -2.2830 ha         1 0SQ       0.115000
     35 H15          6.0370     1.2310    -2.7740 ha         1 0SQ       0.120000
     36 H16          7.4210    -0.2130    -5.8900 hc         1 0SQ       0.019367
     37 H17          7.6940     0.9930    -4.6250 hc         1 0SQ       0.019367
     38 H18          7.7870    -0.7300    -4.2380 hc         1 0SQ       0.019367
     39 H19          5.2940    -1.2110    -6.1990 ha         1 0SQ       0.120000
     40 H20          3.1270    -1.4070    -5.7090 ha         1 0SQ       0.115000
     41 H133         2.4470     0.8290     1.2300 hn         1 0SQ       0.240800
@<TRIPOS>BOND
     1     1     2 2   
     2     2     3 1   
     3     2     4 1   
     4     3    21 1   
     5     3    22 1   
     6     3    41 1   
     7     4     5 1   
     8     4    23 1   
     9     5     6 2   
    10     5    13 1   
    11     6     7 1   
    12     6    24 1   
    13     7     8 1   
    14     7    12 2   
    15     8     9 1   
    16     8    10 1   
    17     8    11 1   
    18     9    25 1   
    19     9    26 1   
    20     9    27 1   
    21    10    28 1   
    22    10    29 1   
    23    10    30 1   
    24    11    31 1   
    25    11    32 1   
    26    11    33 1   
    27    12    13 1   
    28    13    14 1   
    29    14    15 ar  
    30    14    20 ar  
    31    15    16 ar  
    32    15    34 1   
    33    16    17 ar  
    34    16    35 1   
    35    17    18 1   
    36    17    19 ar  
    37    18    36 1   
    38    18    37 1   
    39    18    38 1   
    40    19    20 ar  
    41    19    39 1   
    42    20    40 1   
@<TRIPOS>SUBSTRUCTURE
     1 0SQ         1 TEMP              0 ****  ****    0 ROOT
