@<TRIPOS>MOLECULE
molecule
   62    64     1     0     0
SMALL
bcc


@<TRIPOS>ATOM
      1 O28          0.0000     0.0000     0.0000 o          1 0SR      -0.633100
      2 C17          1.2150     0.0000     0.0000 c          1 0SR       0.789100
      3 N16          1.8900     0.0000     1.1680 ns         1 0SR      -0.475100
      4 C10          1.1920     0.0010     2.3760 cc         1 0SR       0.082300
      5 C11         -0.1610     0.0010     2.5240 cd         1 0SR      -0.342300
      6 C9          -0.4420    -0.0000     3.8930 cd         1 0SR       0.366600
      7 C12         -1.8170    -0.0010     4.5090 c3         1 0SR      -0.083300
      8 C15         -2.7000     1.0200     3.7880 c3         1 0SR      -0.080433
      9 C14         -2.4350    -1.3940     4.3770 c3         1 0SR      -0.080433
     10 C13         -1.7120     0.3720     5.9900 c3         1 0SR      -0.080433
     11 N8           0.6910    -0.0000     4.5500 nc         1 0SR      -0.507800
     12 N7           1.7400    -0.0050     3.6220 na         1 0SR       0.114300
     13 C4           3.1090    -0.0120     3.9220 ca         1 0SR       0.039800
     14 C2           3.5790     0.6720     5.0350 ca         1 0SR      -0.145000
     15 C6           3.9950    -0.7080     3.1110 ca         1 0SR      -0.145000
     16 C5           5.3440    -0.7120     3.4110 ca         1 0SR      -0.110000
     17 C3           5.8110    -0.0250     4.5160 ca         1 0SR      -0.093300
     18 C29          7.2830    -0.0320     4.8390 c3         1 0SR      -0.047800
     19 C1           4.9290     0.6640     5.3280 ca         1 0SR      -0.110000
     20 N18          1.8900    -0.0060    -1.1670 ns         1 0SR      -0.599900
     21 C19          1.1570    -0.0120    -2.4350 c3         1 0SR       0.129000
     22 C20          2.1520    -0.0190    -3.5990 c3         1 0SR      -0.103400
     23 C21          1.3870    -0.0250    -4.9230 c3         1 0SR       0.166800
     24 N22          2.3420    -0.0300    -6.0400 n3         1 0SR      -0.729600
     25 C27          1.6570     0.2020    -7.3190 c3         1 0SR       0.122300
     26 C26          2.6930     0.2480    -8.4460 c3         1 0SR       0.139400
     27 O24          3.4430    -0.9700    -8.4460 os         1 0SR      -0.423600
     28 C23          4.1230    -1.2280    -7.2150 c3         1 0SR       0.139400
     29 C25          3.1020    -1.2880    -6.0770 c3         1 0SR       0.122300
     30 H1           2.8900     0.0510     1.1670 hn         1 0SR       0.324500
     31 H2          -0.8890     0.0570     1.7240 ha         1 0SR       0.203000
     32 H3          -3.6140     1.1680     4.3510 hc         1 0SR       0.039367
     33 H4          -2.9420     0.6520     2.7980 hc         1 0SR       0.039367
     34 H5          -2.1700     1.9610     3.7050 hc         1 0SR       0.039367
     35 H6          -1.7690    -2.1270     4.8150 hc         1 0SR       0.039367
     36 H7          -3.3870    -1.4170     4.8940 hc         1 0SR       0.039367
     37 H8          -2.5870    -1.6240     3.3290 hc         1 0SR       0.039367
     38 H9          -2.7040     0.4190     6.4220 hc         1 0SR       0.039367
     39 H10         -1.1260    -0.3760     6.5100 hc         1 0SR       0.039367
     40 H11         -1.2300     1.3380     6.0850 hc         1 0SR       0.039367
     41 H12          2.8890     1.2120     5.6720 ha         1 0SR       0.147000
     42 H13          3.6300    -1.2460     2.2450 ha         1 0SR       0.147000
     43 H14          6.0370    -1.2540     2.7790 ha         1 0SR       0.136000
     44 H15          7.7820    -0.7810     4.2370 hc         1 0SR       0.045033
     45 H16          7.7050     0.9430     4.6250 hc         1 0SR       0.045033
     46 H17          7.4210    -0.2620     5.8890 hc         1 0SR       0.045033
     47 H18          5.2980     1.1990     6.1950 ha         1 0SR       0.136000
     48 H19          2.8900     0.0280    -1.1670 hn         1 0SR       0.308500
     49 H20          0.5350     0.8720    -2.4970 h1         1 0SR       0.055700
     50 H21          0.5340    -0.8970    -2.4880 h1         1 0SR       0.055700
     51 H22          2.7750     0.8660    -3.5460 hc         1 0SR       0.053200
     52 H23          2.7740    -0.9030    -3.5370 hc         1 0SR       0.053200
     53 H24          0.7640     0.8600    -4.9850 h1         1 0SR       0.040200
     54 H25          0.7640    -0.9090    -4.9770 h1         1 0SR       0.040200
     55 H27          0.9570    -0.6030    -7.5050 h1         1 0SR       0.043450
     56 H28          1.1270     1.1460    -7.2790 h1         1 0SR       0.043450
     57 H29          2.1860     0.3590    -9.3980 h1         1 0SR       0.053950
     58 H30          3.3630     1.0840    -8.2870 h1         1 0SR       0.053950
     59 H31          4.8320    -0.4310    -7.0220 h1         1 0SR       0.053950
     60 H32          4.6450    -2.1750    -7.2820 h1         1 0SR       0.053950
     61 H33          2.4230    -2.1150    -6.2460 h1         1 0SR       0.043450
     62 H34          3.6200    -1.4250    -5.1350 h1         1 0SR       0.043450
@<TRIPOS>BOND
     1    28    27 1   
     2    28    29 1   
     3    27    26 1   
     4    29    24 1   
     5    26    25 1   
     6    24    25 1   
     7    24    23 1   
     8    23    22 1   
     9    22    21 1   
    10    21    20 1   
    11    20     2 1   
    12     1     2 2   
    13     2     3 1   
    14     3     4 1   
    15    15    16 ar  
    16    15    13 ar  
    17    16    17 ar  
    18     4     5 2   
    19     4    12 1   
    20     5     6 1   
    21    12    13 1   
    22    12    11 1   
    23     8     7 1   
    24    13    14 ar  
    25    17    18 1   
    26    17    19 ar  
    27     6    11 2   
    28     6     7 1   
    29     7     9 1   
    30     7    10 1   
    31    14    19 ar  
    32     3    30 1   
    33     5    31 1   
    34     8    32 1   
    35     8    33 1   
    36     8    34 1   
    37     9    35 1   
    38     9    36 1   
    39     9    37 1   
    40    10    38 1   
    41    10    39 1   
    42    10    40 1   
    43    14    41 1   
    44    15    42 1   
    45    16    43 1   
    46    18    44 1   
    47    18    45 1   
    48    18    46 1   
    49    19    47 1   
    50    20    48 1   
    51    21    49 1   
    52    21    50 1   
    53    22    51 1   
    54    22    52 1   
    55    23    53 1   
    56    23    54 1   
    57    25    55 1   
    58    25    56 1   
    59    26    57 1   
    60    26    58 1   
    61    28    59 1   
    62    28    60 1   
    63    29    61 1   
    64    29    62 1   
@<TRIPOS>SUBSTRUCTURE
     1 0SR         1 TEMP              0 ****  ****    0 ROOT
