@<TRIPOS>MOLECULE
0SR
   63    65     1     0     0
SMALL
bcc


@<TRIPOS>ATOM
      1 O28          0.9750     3.2950    -0.0190 o          1 0SR      -0.466100
      2 C17          1.0820     2.0990    -0.2980 c          1 0SR       0.643100
      3 N16          0.7590     0.9900     0.4390 ns         1 0SR      -0.380100
      4 C10          0.3610     1.1240     1.7800 cc         1 0SR      -0.088700
      5 C11         -0.9500     1.1500     2.3030 cd         1 0SR      -0.205300
      6 C9          -0.7720     1.2180     3.7360 cd         1 0SR       0.326600
      7 C12         -1.8930     1.2610     4.7290 c3         1 0SR      -0.079300
      8 C15         -2.7470     2.4940     4.4470 c3         1 0SR      -0.088100
      9 C14         -1.3790     1.3290     6.1610 c3         1 0SR      -0.088100
     10 C13         -2.7410     0.0040     4.5630 c3         1 0SR      -0.088100
     11 N8           0.5620     1.2410     4.0410 nc         1 0SR      -0.431800
     12 N7           1.2450     1.1980     2.8970 na         1 0SR       0.169300
     13 C4           2.6720     1.2060     2.8220 ca         1 0SR      -0.032200
     14 C2           3.4180     0.1800     3.4330 ca         1 0SR      -0.119500
     15 C6           3.3370     2.2620     2.1680 ca         1 0SR      -0.119500
     16 C5           4.7260     2.2670     2.1070 ca         1 0SR      -0.128500
     17 C3           5.4760     1.2430     2.7000 ca         1 0SR      -0.045300
     18 C29          6.9550     1.2720     2.6570 c3         1 0SR      -0.067800
     19 C1           4.8080     0.2050     3.3610 ca         1 0SR      -0.128500
     20 N18          1.5990     1.8690    -1.7340 ny         1 0SR      -0.674800
     21 C19          0.6260     1.1500    -2.6100 c3         1 0SR       0.101800
     22 C20          0.9320    -0.3330    -2.7610 c3         1 0SR      -0.116400
     23 C21         -0.1110    -0.9500    -3.7080 c3         1 0SR       0.184800
     24 N22          0.0380    -2.3910    -3.7940 n3         1 0SR      -0.739600
     25 C27          1.0560    -2.7990    -4.7560 c3         1 0SR       0.132300
     26 C26          1.1650    -4.3240    -4.8830 c3         1 0SR       0.125900
     27 O24         -0.1010    -4.9110    -5.1540 os         1 0SR      -0.398600
     28 C23         -1.0610    -4.5940    -4.1550 c3         1 0SR       0.125900
     29 C25         -1.2340    -3.0760    -4.0040 c3         1 0SR       0.132300
     30 H1           1.0280     0.0740     0.1420 hn         1 0SR       0.355500
     31 H2          -1.8890     1.1180     1.7610 ha         1 0SR       0.182000
     32 H3          -2.1440     3.4240     4.5820 hc         1 0SR       0.044922
     33 H4          -3.1400     2.4670     3.4030 hc         1 0SR       0.044922
     34 H5          -3.6100     2.5220     5.1550 hc         1 0SR       0.044922
     35 H6          -0.7590     0.4320     6.4000 hc         1 0SR       0.044922
     36 H7          -0.7620     2.2460     6.3160 hc         1 0SR       0.044922
     37 H8          -2.2450     1.3600     6.8660 hc         1 0SR       0.044922
     38 H9          -3.1340    -0.0690     3.5200 hc         1 0SR       0.044922
     39 H10         -3.6060     0.0390     5.2690 hc         1 0SR       0.044922
     40 H11         -2.1360    -0.9070     4.7850 hc         1 0SR       0.044922
     41 H12          2.9130    -0.6310     3.9820 ha         1 0SR       0.154000
     42 H13          2.7670     3.1020     1.7380 ha         1 0SR       0.154000
     43 H14          5.2440     3.1020     1.6100 ha         1 0SR       0.151000
     44 H15          7.3240     1.8610     1.7820 hc         1 0SR       0.059367
     45 H16          7.3490     1.7500     3.5910 hc         1 0SR       0.059367
     46 H17          7.3740     0.2370     2.5930 hc         1 0SR       0.059367
     47 H18          5.3880    -0.5960     3.8450 ha         1 0SR       0.151000
     48 H19          2.4870     1.3600    -1.7050 hn         1 0SR       0.464300
     49 H20          0.6570     1.6420    -3.6270 hx         1 0SR       0.111700
     50 H21         -0.4080     1.2970    -2.1840 hx         1 0SR       0.111700
     51 H22          1.9600    -0.4830    -3.1860 hc         1 0SR       0.069200
     52 H23          0.8890    -0.8580    -1.7710 hc         1 0SR       0.069200
     53 H24         -0.0130    -0.4480    -4.7160 h1         1 0SR       0.046700
     54 H25         -1.1370    -0.7080    -3.3070 h1         1 0SR       0.046700
     55 H27          2.0460    -2.3980    -4.4030 h1         1 0SR       0.043200
     56 H28          0.8500    -2.3710    -5.7800 h1         1 0SR       0.043200
     57 H29          1.5990    -4.7700    -3.9500 h1         1 0SR       0.064700
     58 H30          1.7950    -4.5920    -5.7720 h1         1 0SR       0.064700
     59 H31         -0.7610    -5.0580    -3.1790 h1         1 0SR       0.064700
     60 H32         -2.0150    -5.0530    -4.5260 h1         1 0SR       0.064700
     61 H33         -1.7640    -2.6850    -4.9200 h1         1 0SR       0.043200
     62 H34         -1.8850    -2.8800    -3.1080 h1         1 0SR       0.043200
     63 H182         1.7740     2.8100    -2.1190 hn         1 0SR       0.464300
@<TRIPOS>BOND
     1     1     2 2   
     2     2     3 1   
     3     2    20 1   
     4     3     4 1   
     5     3    30 1   
     6     4     5 2   
     7     4    12 1   
     8     5     6 1   
     9     5    31 1   
    10     6     7 1   
    11     6    11 2   
    12     7     8 1   
    13     7     9 1   
    14     7    10 1   
    15     8    32 1   
    16     8    33 1   
    17     8    34 1   
    18     9    35 1   
    19     9    36 1   
    20     9    37 1   
    21    10    38 1   
    22    10    39 1   
    23    10    40 1   
    24    11    12 1   
    25    12    13 1   
    26    13    14 ar  
    27    13    15 ar  
    28    14    19 ar  
    29    14    41 1   
    30    15    16 ar  
    31    15    42 1   
    32    16    17 ar  
    33    16    43 1   
    34    17    18 1   
    35    17    19 ar  
    36    18    44 1   
    37    18    45 1   
    38    18    46 1   
    39    19    47 1   
    40    20    21 1   
    41    20    48 1   
    42    20    63 1   
    43    21    22 1   
    44    21    49 1   
    45    21    50 1   
    46    22    23 1   
    47    22    51 1   
    48    22    52 1   
    49    23    24 1   
    50    23    53 1   
    51    23    54 1   
    52    24    25 1   
    53    24    29 1   
    54    25    26 1   
    55    25    55 1   
    56    25    56 1   
    57    26    27 1   
    58    26    57 1   
    59    26    58 1   
    60    27    28 1   
    61    28    29 1   
    62    28    59 1   
    63    28    60 1   
    64    29    61 1   
    65    29    62 1   
@<TRIPOS>SUBSTRUCTURE
     1 0SR         1 TEMP              0 ****  ****    0 ROOT
