@<TRIPOS>MOLECULE
0SS
   97   101     1     0     0
SMALL
bcc


@<TRIPOS>ATOM
      1 O31          0.0640     1.8840     1.9790 o          1 0SS      -0.464100
      2 C29          0.9170     1.3320     1.2820 c          1 0SS       0.637100
      3 N30          1.5730     0.1380     1.4800 ns         1 0SS      -0.380100
      4 C32          1.4130    -0.5540     2.6940 cc         1 0SS      -0.089700
      5 N35          2.1790    -0.3320     3.8770 na         1 0SS       0.167300
      6 C41          3.1950     0.6610     4.0280 ca         1 0SS      -0.032200
      7 C46          2.8680     2.0260     3.9110 ca         1 0SS      -0.119500
      8 C45          3.8610     2.9880     4.0650 ca         1 0SS      -0.128000
      9 C44          5.1810     2.6180     4.3510 ca         1 0SS      -0.046300
     10 C47          6.2260     3.6490     4.5440 c3         1 0SS      -0.067800
     11 C43          5.4950     1.2600     4.4820 ca         1 0SS      -0.128000
     12 C42          4.5170     0.2810     4.3290 ca         1 0SS      -0.119500
     13 N36          1.8430    -1.2020     4.8310 nc         1 0SS      -0.432800
     14 C34          0.8480    -2.0010     4.3380 cd         1 0SS       0.325600
     15 C37          0.1710    -3.1080     5.0860 c3         1 0SS      -0.079300
     16 C40         -1.3210    -2.7990     5.1690 c3         1 0SS      -0.088100
     17 C39          0.7260    -3.2620     6.4960 c3         1 0SS      -0.088100
     18 C38          0.3790    -4.4130     4.3230 c3         1 0SS      -0.088100
     19 C33          0.5360    -1.6210     2.9780 cd         1 0SS      -0.203300
     20 N28          1.1960     2.0710    -0.0360 ny         1 0SS      -0.660800
     21 C27          0.6140     1.3570    -1.2070 c3         1 0SS       0.101800
     22 C26          0.9160     2.0680    -2.5440 c3         1 0SS       0.141800
     23 N24          0.6260     3.4900    -2.4810 n3         1 0SS      -0.773600
     24 C23          1.5680     4.2870    -3.2650 c3         1 0SS       0.124800
     25 C21          1.2260     5.7920    -3.2550 c3         1 0SS       0.061000
     26 C25         -0.7700     3.7880    -2.7860 c3         1 0SS       0.124800
     27 C22         -1.0790     5.3030    -2.7960 c3         1 0SS       0.061000
     28 N19         -0.1560     6.0950    -3.5850 n          1 0SS      -0.414800
     29 C18         -0.4190     6.1510    -5.0120 c          1 0SS       0.724100
     30 O20          0.4260     5.7340    -5.8300 o          1 0SS      -0.585100
     31 N17         -1.6510     6.6950    -5.4180 ns         1 0SS      -0.424100
     32 C10         -1.8180     7.0740    -6.7610 cc         1 0SS      -0.016700
     33 C12         -1.6720     8.3440    -7.3590 cd         1 0SS      -0.275300
     34 C11         -1.9880     8.1410    -8.7540 cd         1 0SS       0.329600
     35 C13         -1.9850     9.1900    -9.8230 c3         1 0SS      -0.075300
     36 C16         -3.3770     9.3030   -10.4340 c3         1 0SS      -0.087433
     37 C15         -0.9840     8.8100   -10.9100 c3         1 0SS      -0.087433
     38 C14         -1.5890    10.5360    -9.2300 c3         1 0SS      -0.087433
     39 N9          -2.2950     6.8280    -8.9760 nc         1 0SS      -0.477800
     40 N8          -2.2100     6.1870    -7.8020 na         1 0SS       0.171300
     41 C4          -2.4740     4.7930    -7.6620 ca         1 0SS       0.018800
     42 C2          -3.3570     4.3340    -6.6660 ca         1 0SS      -0.111000
     43 C6          -1.8760     3.8670    -8.5410 ca         1 0SS      -0.111000
     44 C5          -2.1570     2.5100    -8.4100 ca         1 0SS      -0.132500
     45 C3          -3.0290     2.0490    -7.4170 ca         1 0SS      -0.076300
     46 C7          -3.3430     0.6060    -7.3110 c3         1 0SS      -0.056800
     47 C1          -3.6200     2.9720    -6.5490 ca         1 0SS      -0.132500
     48 H1           2.3920    -0.0860     0.9520 hn         1 0SS       0.347500
     49 H2           1.8250     2.3390     3.7360 ha         1 0SS       0.153500
     50 H3           3.5990     4.0550     3.9890 ha         1 0SS       0.151000
     51 H4           6.3270     3.8830     5.6350 hc         1 0SS       0.059700
     52 H5           5.9670     4.5940     4.0070 hc         1 0SS       0.059700
     53 H6           7.2180     3.2880     4.1730 hc         1 0SS       0.059700
     54 H7           6.5270     0.9590     4.7230 ha         1 0SS       0.151000
     55 H8           4.7790    -0.7810     4.4630 ha         1 0SS       0.153500
     56 H9          -1.7550    -2.6850     4.1470 hc         1 0SS       0.044922
     57 H10         -1.4920    -1.8550     5.7400 hc         1 0SS       0.044922
     58 H11         -1.8490    -3.6320     5.6910 hc         1 0SS       0.044922
     59 H12          1.8160    -3.5000     6.4670 hc         1 0SS       0.044922
     60 H13          0.5770    -2.3240     7.0830 hc         1 0SS       0.044922
     61 H14          0.1940    -4.0950     7.0170 hc         1 0SS       0.044922
     62 H15         -0.0220    -4.3280     3.2850 hc         1 0SS       0.044922
     63 H16          1.4650    -4.6640     4.2710 hc         1 0SS       0.044922
     64 H17         -0.1540    -5.2430     4.8460 hc         1 0SS       0.044922
     65 H18         -0.2070    -2.0710     2.3280 ha         1 0SS       0.182000
     66 H19          2.1980     2.2130    -0.1790 hn         1 0SS       0.468300
     67 H20          1.0420     0.3160    -1.2510 hx         1 0SS       0.106700
     68 H21         -0.5000     1.2910    -1.0410 hx         1 0SS       0.106700
     69 H22          2.0020     1.9090    -2.8000 h1         1 0SS       0.078700
     70 H23          0.3030     1.5260    -3.3250 h1         1 0SS       0.078700
     71 H25          1.6080     3.9440    -4.3400 h1         1 0SS       0.054950
     72 H26          2.5900     4.1580    -2.8130 h1         1 0SS       0.054950
     73 H27          1.9110     6.3020    -3.9900 h1         1 0SS       0.077450
     74 H28          1.4100     6.2180    -2.2290 h1         1 0SS       0.077450
     75 H29         -1.4040     3.3090    -1.9890 h1         1 0SS       0.054950
     76 H30         -1.0760     3.3530    -3.7820 h1         1 0SS       0.054950
     77 H31         -2.1350     5.4310    -3.1620 h1         1 0SS       0.077450
     78 H32         -1.0240     5.6980    -1.7410 h1         1 0SS       0.077450
     79 H33         -2.1440     7.2730    -4.7710 hn         1 0SS       0.328500
     80 H34         -1.3840     9.2730    -6.8810 ha         1 0SS       0.173000
     81 H35         -4.1280     9.5510    -9.6470 hc         1 0SS       0.041478
     82 H36         -3.6710     8.3430   -10.9220 hc         1 0SS       0.041478
     83 H37         -3.3860    10.1110   -11.2040 hc         1 0SS       0.041478
     84 H38         -1.2840     7.8550   -11.4030 hc         1 0SS       0.041478
     85 H39          0.0350     8.6860   -10.4730 hc         1 0SS       0.041478
     86 H40         -0.9470     9.6140   -11.6840 hc         1 0SS       0.041478
     87 H41         -2.3130    10.8430    -8.4380 hc         1 0SS       0.041478
     88 H42         -1.5880    11.3130   -10.0320 hc         1 0SS       0.041478
     89 H43         -0.5670    10.4820    -8.7850 hc         1 0SS       0.041478
     90 H44         -3.8550     5.0430    -5.9880 ha         1 0SS       0.151500
     91 H45         -1.1950     4.2100    -9.3370 ha         1 0SS       0.151500
     92 H46         -1.6920     1.7930    -9.1040 ha         1 0SS       0.137000
     93 H47         -2.4520    -0.0180    -7.5700 hc         1 0SS       0.047367
     94 H48         -3.6780     0.3390    -6.2790 hc         1 0SS       0.047367
     95 H49         -4.1680     0.3450    -8.0230 hc         1 0SS       0.047367
     96 H50         -4.3220     2.6230    -5.7770 ha         1 0SS       0.137000
     97 H282         0.7490     3.0000     0.0440 hn         1 0SS       0.468300
@<TRIPOS>BOND
     1     1     2 2   
     2     2     3 1   
     3     2    20 1   
     4     3     4 1   
     5     3    48 1   
     6     4     5 1   
     7     4    19 2   
     8     5     6 1   
     9     5    13 1   
    10     6     7 ar  
    11     6    12 ar  
    12     7     8 ar  
    13     7    49 1   
    14     8     9 ar  
    15     8    50 1   
    16     9    10 1   
    17     9    11 ar  
    18    10    51 1   
    19    10    52 1   
    20    10    53 1   
    21    11    12 ar  
    22    11    54 1   
    23    12    55 1   
    24    13    14 2   
    25    14    15 1   
    26    14    19 1   
    27    15    16 1   
    28    15    17 1   
    29    15    18 1   
    30    16    56 1   
    31    16    57 1   
    32    16    58 1   
    33    17    59 1   
    34    17    60 1   
    35    17    61 1   
    36    18    62 1   
    37    18    63 1   
    38    18    64 1   
    39    19    65 1   
    40    20    21 1   
    41    20    66 1   
    42    20    97 1   
    43    21    22 1   
    44    21    67 1   
    45    21    68 1   
    46    22    23 1   
    47    22    69 1   
    48    22    70 1   
    49    23    24 1   
    50    23    26 1   
    51    24    25 1   
    52    24    71 1   
    53    24    72 1   
    54    25    28 1   
    55    25    73 1   
    56    25    74 1   
    57    26    27 1   
    58    26    75 1   
    59    26    76 1   
    60    27    28 1   
    61    27    77 1   
    62    27    78 1   
    63    28    29 1   
    64    29    30 2   
    65    29    31 1   
    66    31    32 1   
    67    31    79 1   
    68    32    33 2   
    69    32    40 1   
    70    33    34 1   
    71    33    80 1   
    72    34    35 1   
    73    34    39 2   
    74    35    36 1   
    75    35    37 1   
    76    35    38 1   
    77    36    81 1   
    78    36    82 1   
    79    36    83 1   
    80    37    84 1   
    81    37    85 1   
    82    37    86 1   
    83    38    87 1   
    84    38    88 1   
    85    38    89 1   
    86    39    40 1   
    87    40    41 1   
    88    41    42 ar  
    89    41    43 ar  
    90    42    47 ar  
    91    42    90 1   
    92    43    44 ar  
    93    43    91 1   
    94    44    45 ar  
    95    44    92 1   
    96    45    46 1   
    97    45    47 ar  
    98    46    93 1   
    99    46    94 1   
   100    46    95 1   
   101    47    96 1   
@<TRIPOS>SUBSTRUCTURE
     1 0SS         1 TEMP              0 ****  ****    0 ROOT
