@<TRIPOS>MOLECULE
molecule
   96   100     1     0     0
SMALL
bcc


@<TRIPOS>ATOM
      1 O31          0.0000     0.0000     0.0000 o          1 0SS      -0.630100
      2 C29          1.2150     0.0000     0.0000 c          1 0SS       0.790100
      3 N30          1.8900     0.0000     1.1680 ns         1 0SS      -0.474100
      4 C32          1.1920    -0.0010     2.3750 cc         1 0SS       0.081300
      5 N35          1.7400     0.0050     3.6220 na         1 0SS       0.114300
      6 C41          3.1080     0.0120     3.9230 ca         1 0SS       0.040800
      7 C46          4.0030    -0.6700     3.1080 ca         1 0SS      -0.146000
      8 C45          5.3510    -0.6610     3.4080 ca         1 0SS      -0.109500
      9 C44          5.8110     0.0260     4.5160 ca         1 0SS      -0.094300
     10 C47          7.2830     0.0330     4.8400 c3         1 0SS      -0.046800
     11 C43          4.9220     0.7060     5.3290 ca         1 0SS      -0.109500
     12 C42          3.5730     0.7060     5.0310 ca         1 0SS      -0.146000
     13 N36          0.6900     0.0020     4.5500 nc         1 0SS      -0.506800
     14 C34         -0.4420    -0.0040     3.8940 cd         1 0SS       0.367600
     15 C37         -1.8170    -0.0090     4.5100 c3         1 0SS      -0.083300
     16 C40         -2.7040     1.0060     3.7870 c3         1 0SS      -0.080433
     17 C39         -2.4290    -1.4050     4.3810 c3         1 0SS      -0.080433
     18 C38         -1.7130     0.3670     5.9890 c3         1 0SS      -0.080433
     19 C33         -0.1610     0.0000     2.5240 cd         1 0SS      -0.341300
     20 N28          1.8900    -0.0060    -1.1670 ns         1 0SS      -0.602900
     21 C27          1.1570    -0.0110    -2.4350 c3         1 0SS       0.129000
     22 C26          2.1510    -0.0170    -3.5980 c3         1 0SS       0.143800
     23 N24          1.4170    -0.0220    -4.8700 n3         1 0SS      -0.725600
     24 C23          2.3230     0.2110    -6.0020 c3         1 0SS       0.141800
     25 C21          1.5010     0.3770    -7.2850 c3         1 0SS       0.117500
     26 C25          0.6650    -1.2730    -5.0380 c3         1 0SS       0.141800
     27 C22         -0.2250    -1.1670    -6.2820 c3         1 0SS       0.117500
     28 N19          0.6150    -0.7890    -7.4270 n          1 0SS      -0.507800
     29 C18          0.5760    -1.4910    -8.5760 c          1 0SS       0.795100
     30 O20         -0.0900    -2.5060    -8.6460 o          1 0SS      -0.635100
     31 N17          1.2730    -1.0680    -9.6490 ns         1 0SS      -0.476100
     32 C10          1.1490    -1.7330   -10.8690 cc         1 0SS       0.080300
     33 C12          0.3640    -2.8170   -11.1180 cd         1 0SS      -0.341300
     34 C11          0.5310    -3.1680   -12.4610 cd         1 0SS       0.367600
     35 C13         -0.1510    -4.3130   -13.1640 c3         1 0SS      -0.083300
     36 C16          0.5600    -4.5960   -14.4890 c3         1 0SS      -0.080100
     37 C15         -0.0960    -5.5600   -12.2790 c3         1 0SS      -0.080100
     38 C14         -1.6110    -3.9460   -13.4370 c3         1 0SS      -0.080100
     39 N9           1.3810    -2.3340   -13.0050 nc         1 0SS      -0.507800
     40 N8           1.7840    -1.4150   -12.0290 na         1 0SS       0.115300
     41 C4           2.6890    -0.3590   -12.2120 ca         1 0SS       0.039800
     42 C2           3.7710    -0.5120   -13.0680 ca         1 0SS      -0.145000
     43 C6           2.5010     0.8420   -11.5420 ca         1 0SS      -0.145000
     44 C5           3.3940     1.8790   -11.7240 ca         1 0SS      -0.110000
     45 C3           4.4740     1.7230   -12.5730 ca         1 0SS      -0.093300
     46 C7           5.4470     2.8570   -12.7700 c3         1 0SS      -0.047800
     47 C1           4.6610     0.5300   -13.2470 ca         1 0SS      -0.110000
     48 H1           2.8890     0.0520     1.1670 hn         1 0SS       0.324500
     49 H2           3.6450    -1.2080     2.2390 ha         1 0SS       0.146000
     50 H3           6.0490    -1.1930     2.7730 ha         1 0SS       0.136500
     51 H4           7.8370    -0.3870     4.0090 hc         1 0SS       0.045033
     52 H5           7.4600    -0.5600     5.7290 hc         1 0SS       0.045033
     53 H6           7.6090     1.0510     5.0140 hc         1 0SS       0.045033
     54 H7           5.2860     1.2450     6.1950 ha         1 0SS       0.136500
     55 H8           2.8780     1.2390     5.6680 ha         1 0SS       0.146000
     56 H9          -3.6270     1.1360     4.3370 hc         1 0SS       0.039700
     57 H10         -2.9250     0.6450     2.7890 hc         1 0SS       0.039700
     58 H11         -2.1860     1.9550     3.7210 hc         1 0SS       0.039700
     59 H12         -2.5690    -1.6430     3.3330 hc         1 0SS       0.039700
     60 H13         -3.3870    -1.4280     4.8870 hc         1 0SS       0.039700
     61 H14         -1.7650    -2.1340     4.8310 hc         1 0SS       0.039700
     62 H15         -2.7060     0.4050     6.4230 hc         1 0SS       0.039700
     63 H16         -1.1200    -0.3750     6.5100 hc         1 0SS       0.039700
     64 H17         -1.2410     1.3380     6.0830 hc         1 0SS       0.039700
     65 H18         -0.8910    -0.0030     1.7240 ha         1 0SS       0.203000
     66 H19          2.8900    -0.0020    -1.1670 hn         1 0SS       0.306500
     67 H20          0.5340    -0.8960    -2.4890 h1         1 0SS       0.064700
     68 H21          0.5350     0.8730    -2.4970 h1         1 0SS       0.064700
     69 H22          2.7740    -0.9010    -3.5360 h1         1 0SS       0.037700
     70 H23          2.7740     0.8680    -3.5440 h1         1 0SS       0.037700
     71 H25          2.8980     1.1110    -5.8240 h1         1 0SS       0.047200
     72 H26          2.9910    -0.6360    -6.1100 h1         1 0SS       0.047200
     73 H27          2.1670     0.4330    -8.1380 h1         1 0SS       0.062700
     74 H28          0.9060     1.2800    -7.2210 h1         1 0SS       0.062700
     75 H29          1.3580    -2.0970    -5.1600 h1         1 0SS       0.047200
     76 H30          0.0460    -1.4420    -4.1650 h1         1 0SS       0.047200
     77 H31         -0.9830    -0.4100    -6.1220 h1         1 0SS       0.062700
     78 H32         -0.6930    -2.1250    -6.4750 h1         1 0SS       0.062700
     79 H33          1.8850    -0.2810    -9.5690 hn         1 0SS       0.328500
     80 H34         -0.3180    -3.2840   -10.4180 ha         1 0SS       0.202000
     81 H35          0.4830    -3.7280   -15.1330 hc         1 0SS       0.039478
     82 H36          1.6040    -4.8140   -14.2990 hc         1 0SS       0.039478
     83 H37          0.0960    -5.4470   -14.9730 hc         1 0SS       0.039478
     84 H38         -0.4250    -6.4220   -12.8480 hc         1 0SS       0.039478
     85 H39         -0.7450    -5.4240   -11.4220 hc         1 0SS       0.039478
     86 H40          0.9210    -5.7180   -11.9400 hc         1 0SS       0.039478
     87 H41         -1.6520    -3.0220   -14.0000 hc         1 0SS       0.039478
     88 H42         -2.1330    -3.8190   -12.4960 hc         1 0SS       0.039478
     89 H43         -2.0820    -4.7380   -14.0070 hc         1 0SS       0.039478
     90 H44          3.9180    -1.4460   -13.5950 ha         1 0SS       0.146500
     91 H45          1.6550     0.9650   -10.8760 ha         1 0SS       0.146500
     92 H46          3.2480     2.8170   -11.2010 ha         1 0SS       0.136500
     93 H47          5.1420     3.7030   -12.1660 hc         1 0SS       0.045033
     94 H48          6.4380     2.5380   -12.4700 hc         1 0SS       0.045033
     95 H49          5.4610     3.1450   -13.8140 hc         1 0SS       0.045033
     96 H50          5.5070     0.4110   -13.9130 ha         1 0SS       0.136500
@<TRIPOS>BOND
     1    37    35 1   
     2    36    35 1   
     3    35    38 1   
     4    35    34 1   
     5    39    34 2   
     6    39    40 1   
     7    34    33 1   
     8    43    44 ar  
     9    43    41 ar  
    10    44    45 ar  
    11    40    41 1   
    12    40    32 1   
    13    41    42 ar  
    14    45    46 1   
    15    45    47 ar  
    16    33    32 2   
    17    42    47 ar  
    18    32    31 1   
    19    30    29 2   
    20    31    29 1   
    21    29    28 1   
    22    28    25 1   
    23    28    27 1   
    24    25    24 1   
    25    24    23 1   
    26    27    26 1   
    27    26    23 1   
    28    23    22 1   
    29    22    21 1   
    30    21    20 1   
    31    20     2 1   
    32     1     2 2   
    33     2     3 1   
    34     3     4 1   
    35     7     8 ar  
    36     7     6 ar  
    37     8     9 ar  
    38     4    19 2   
    39     4     5 1   
    40    19    14 1   
    41     5     6 1   
    42     5    13 1   
    43     6    12 ar  
    44    16    15 1   
    45     9    10 1   
    46     9    11 ar  
    47    14    13 2   
    48    14    15 1   
    49    15    17 1   
    50    15    18 1   
    51    12    11 ar  
    52     3    48 1   
    53     7    49 1   
    54     8    50 1   
    55    10    51 1   
    56    10    52 1   
    57    10    53 1   
    58    11    54 1   
    59    12    55 1   
    60    16    56 1   
    61    16    57 1   
    62    16    58 1   
    63    17    59 1   
    64    17    60 1   
    65    17    61 1   
    66    18    62 1   
    67    18    63 1   
    68    18    64 1   
    69    19    65 1   
    70    20    66 1   
    71    21    67 1   
    72    21    68 1   
    73    22    69 1   
    74    22    70 1   
    75    24    71 1   
    76    24    72 1   
    77    25    73 1   
    78    25    74 1   
    79    26    75 1   
    80    26    76 1   
    81    27    77 1   
    82    27    78 1   
    83    31    79 1   
    84    33    80 1   
    85    36    81 1   
    86    36    82 1   
    87    36    83 1   
    88    37    84 1   
    89    37    85 1   
    90    37    86 1   
    91    38    87 1   
    92    38    88 1   
    93    38    89 1   
    94    42    90 1   
    95    43    91 1   
    96    44    92 1   
    97    46    93 1   
    98    46    94 1   
    99    46    95 1   
   100    47    96 1   
@<TRIPOS>SUBSTRUCTURE
     1 0SS         1 TEMP              0 ****  ****    0 ROOT
