@<TRIPOS>MOLECULE
molecule
   59    61     1     0     0
SMALL
bcc


@<TRIPOS>ATOM
      1 O21          0.0000     0.0000     0.0000 o          1 0ST      -0.632100
      2 C18          1.2160     0.0000     0.0000 c          1 0ST       0.790100
      3 N17          1.8900     0.0000     1.1670 ns         1 0ST      -0.474100
      4 C11          1.1920     0.0000     2.3740 cc         1 0ST       0.081300
      5 C12         -0.1610    -0.0010     2.5240 cd         1 0ST      -0.341300
      6 C10         -0.4420    -0.0010     3.8920 cd         1 0ST       0.366600
      7 C13         -1.8180    -0.0010     4.5090 c3         1 0ST      -0.083300
      8 C16         -2.4350    -1.3950     4.3770 c3         1 0ST      -0.080433
      9 C15         -1.7130     0.3710     5.9900 c3         1 0ST      -0.080433
     10 C14         -2.7000     1.0190     3.7870 c3         1 0ST      -0.080433
     11 N9           0.6900    -0.0010     4.5490 nc         1 0ST      -0.507800
     12 N8           1.7390    -0.0060     3.6210 na         1 0ST       0.114300
     13 C4           3.1080    -0.0120     3.9210 ca         1 0ST       0.039800
     14 C2           3.5790     0.6720     5.0340 ca         1 0ST      -0.145000
     15 C6           3.9950    -0.7070     3.1110 ca         1 0ST      -0.145000
     16 C5           5.3440    -0.7110     3.4100 ca         1 0ST      -0.110000
     17 C3           5.8100    -0.0250     4.5150 ca         1 0ST      -0.093300
     18 C7           7.2820    -0.0310     4.8380 c3         1 0ST      -0.047800
     19 C1           4.9280     0.6640     5.3270 ca         1 0ST      -0.110000
     20 N19          1.8900    -0.0060    -1.1670 ns         1 0ST      -0.601900
     21 C20          1.1580    -0.0120    -2.4360 c3         1 0ST       0.128000
     22 C22          2.1520    -0.0170    -3.5990 c3         1 0ST       0.143800
     23 N23          1.4170    -0.0230    -4.8710 n3         1 0ST      -0.723600
     24 C28          2.3250     0.2090    -6.0050 c3         1 0ST       0.120800
     25 C27          1.5120     0.2550    -7.3010 c3         1 0ST       0.139900
     26 O25          0.7750    -0.9630    -7.4390 os         1 0ST      -0.423600
     27 C24         -0.1190    -1.2210    -6.3530 c3         1 0ST       0.139900
     28 C26          0.6770    -1.2820    -5.0460 c3         1 0ST       0.120800
     29 H1           2.8890     0.0500     1.1670 hn         1 0ST       0.324500
     30 H2          -0.8900     0.0410     1.7240 ha         1 0ST       0.203000
     31 H3          -1.7680    -2.1280     4.8150 hc         1 0ST       0.039367
     32 H4          -3.3870    -1.4190     4.8940 hc         1 0ST       0.039367
     33 H5          -2.5860    -1.6260     3.3300 hc         1 0ST       0.039367
     34 H6          -1.1290    -0.3780     6.5100 hc         1 0ST       0.039367
     35 H7          -1.2310     1.3360     6.0860 hc         1 0ST       0.039367
     36 H8          -2.7060     0.4190     6.4210 hc         1 0ST       0.039367
     37 H9          -2.1700     1.9600     3.7030 hc         1 0ST       0.039367
     38 H10         -2.9420     0.6510     2.7970 hc         1 0ST       0.039367
     39 H11         -3.6140     1.1680     4.3500 hc         1 0ST       0.039367
     40 H12          2.8890     1.2120     5.6710 ha         1 0ST       0.146000
     41 H13          3.6300    -1.2460     2.2450 ha         1 0ST       0.146000
     42 H14          6.0370    -1.2540     2.7780 ha         1 0ST       0.136500
     43 H15          7.4570    -0.6470     5.7120 hc         1 0ST       0.045033
     44 H16          7.8350    -0.4320     3.9970 hc         1 0ST       0.045033
     45 H17          7.6130     0.9810     5.0380 hc         1 0ST       0.045033
     46 H18          5.2960     1.2000     6.1940 ha         1 0ST       0.136500
     47 H19          2.8900     0.0140    -1.1670 hn         1 0ST       0.306500
     48 H20          0.5350    -0.8970    -2.4900 h1         1 0ST       0.063700
     49 H21          0.5340     0.8720    -2.4980 h1         1 0ST       0.063700
     50 H22          2.7750    -0.9010    -3.5380 h1         1 0ST       0.037200
     51 H23          2.7740     0.8680    -3.5460 h1         1 0ST       0.037200
     52 H25          2.8380     1.1530    -5.8680 h1         1 0ST       0.044950
     53 H26          3.0470    -0.5970    -6.0600 h1         1 0ST       0.044950
     54 H27          0.8240     1.0910    -7.2660 h1         1 0ST       0.055450
     55 H28          2.1830     0.3680    -8.1440 h1         1 0ST       0.055450
     56 H29         -0.8520    -0.4250    -6.2920 h1         1 0ST       0.055450
     57 H30         -0.6190    -2.1680    -6.5140 h1         1 0ST       0.055450
     58 H31          1.3770    -2.1080    -5.0890 h1         1 0ST       0.044950
     59 H32         -0.0030    -1.4180    -4.2150 h1         1 0ST       0.044950
@<TRIPOS>BOND
     1    27    26 1   
     2    27    28 1   
     3    26    25 1   
     4    28    23 1   
     5    25    24 1   
     6    23    24 1   
     7    23    22 1   
     8    22    21 1   
     9    21    20 1   
    10    20     2 1   
    11     1     2 2   
    12     2     3 1   
    13     3     4 1   
    14     4     5 2   
    15     4    12 1   
    16    15    16 ar  
    17    15    13 ar  
    18    16    17 ar  
    19     5     6 1   
    20    12    13 1   
    21    12    11 1   
    22    13    14 ar  
    23    10     7 1   
    24     6    11 2   
    25     6     7 1   
    26    17    18 1   
    27    17    19 ar  
    28     7     8 1   
    29     7     9 1   
    30    14    19 ar  
    31     3    29 1   
    32     5    30 1   
    33     8    31 1   
    34     8    32 1   
    35     8    33 1   
    36     9    34 1   
    37     9    35 1   
    38     9    36 1   
    39    10    37 1   
    40    10    38 1   
    41    10    39 1   
    42    14    40 1   
    43    15    41 1   
    44    16    42 1   
    45    18    43 1   
    46    18    44 1   
    47    18    45 1   
    48    19    46 1   
    49    20    47 1   
    50    21    48 1   
    51    21    49 1   
    52    22    50 1   
    53    22    51 1   
    54    24    52 1   
    55    24    53 1   
    56    25    54 1   
    57    25    55 1   
    58    27    56 1   
    59    27    57 1   
    60    28    58 1   
    61    28    59 1   
@<TRIPOS>SUBSTRUCTURE
     1 0ST         1 TEMP              0 ****  ****    0 ROOT
