@<TRIPOS>MOLECULE
0ST
   60    62     1     0     0
SMALL
bcc


@<TRIPOS>ATOM
      1 O21         -0.5930     1.7580     0.6440 o          1 0ST      -0.466100
      2 C18          0.6220     1.5580     0.5770 c          1 0ST       0.625100
      3 N17          1.4400     0.8700     1.4480 ns         1 0ST      -0.365100
      4 C11          0.9710     0.5810     2.7430 cc         1 0ST      -0.078700
      5 C12         -0.2950     0.1170     3.1530 cd         1 0ST      -0.217300
      6 C10         -0.1760    -0.0520     4.5860 cd         1 0ST       0.340600
      7 C13         -1.2600    -0.5250     5.5090 c3         1 0ST      -0.078300
      8 C16         -1.5630     0.5610     6.5360 c3         1 0ST      -0.090767
      9 C15         -0.8030    -1.7900     6.2270 c3         1 0ST      -0.090767
     10 C14         -2.5220    -0.8290     4.7130 c3         1 0ST      -0.090767
     11 N9           1.0810     0.2880     4.9970 nc         1 0ST      -0.447800
     12 N8           1.7600     0.7240     3.9290 na         1 0ST       0.167300
     13 C4           3.1710     0.9460     3.9140 ca         1 0ST      -0.028200
     14 C2           4.0520     0.0350     4.5270 ca         1 0ST      -0.126000
     15 C6           3.6840     2.1100     3.3050 ca         1 0ST      -0.126000
     16 C5           5.0560     2.3350     3.2920 ca         1 0ST      -0.121500
     17 C3           5.9390     1.4270     3.8890 ca         1 0ST      -0.047300
     18 C7           7.3970     1.6870     3.8950 c3         1 0ST      -0.067800
     19 C1           5.4220     0.2820     4.5070 ca         1 0ST      -0.121500
     20 N19          1.2430     2.0300    -0.7450 ny         1 0ST      -0.658800
     21 C20          1.5300     0.8900    -1.6610 c3         1 0ST       0.101800
     22 C22          2.1870     1.3410    -2.9840 c3         1 0ST       0.141800
     23 N23          1.4940     2.4670    -3.5820 n3         1 0ST      -0.771600
     24 C28          2.3890     3.3380    -4.3440 c3         1 0ST       0.124300
     25 C27          1.6400     4.4890    -5.0290 c3         1 0ST       0.124900
     26 O25          0.5580     4.0080    -5.8140 os         1 0ST      -0.390600
     27 C24         -0.3640     3.2490    -5.0460 c3         1 0ST       0.124900
     28 C26          0.3270     2.0610    -4.3630 c3         1 0ST       0.124300
     29 H1           2.4360     0.9100     1.3400 hn         1 0ST       0.347500
     30 H2          -1.1730    -0.0540     2.5370 ha         1 0ST       0.190000
     31 H3          -1.8710     1.5050     6.0270 hc         1 0ST       0.045922
     32 H4          -0.6670     0.7670     7.1680 hc         1 0ST       0.045922
     33 H5          -2.3970     0.2250     7.1990 hc         1 0ST       0.045922
     34 H6          -1.6260    -2.1670     6.8810 hc         1 0ST       0.045922
     35 H7           0.0890    -1.5810     6.8650 hc         1 0ST       0.045922
     36 H8          -0.5410    -2.5850     5.4890 hc         1 0ST       0.045922
     37 H9          -3.3230    -1.1870     5.4060 hc         1 0ST       0.045922
     38 H10         -2.8890     0.0870     4.1910 hc         1 0ST       0.045922
     39 H11         -2.3280    -1.6260     3.9560 hc         1 0ST       0.045922
     40 H12          3.6680    -0.8650     5.0360 ha         1 0ST       0.147500
     41 H13          3.0080     2.8700     2.8860 ha         1 0ST       0.147500
     42 H14          5.4510     3.2520     2.8270 ha         1 0ST       0.151000
     43 H15          7.9730     0.7320     3.8090 hc         1 0ST       0.059700
     44 H16          7.6870     2.1830     4.8570 hc         1 0ST       0.059700
     45 H17          7.6920     2.3590     3.0530 hc         1 0ST       0.059700
     46 H18          6.1070    -0.4320     4.9940 ha         1 0ST       0.151000
     47 H19          0.5480     2.6510    -1.1930 hn         1 0ST       0.468800
     48 H20          2.2250     0.1710    -1.1440 hx         1 0ST       0.108700
     49 H21          0.5510     0.3700    -1.8680 hx         1 0ST       0.108700
     50 H22          3.2590     1.6230    -2.7770 h1         1 0ST       0.076700
     51 H23          2.2000     0.4240    -3.6470 h1         1 0ST       0.076700
     52 H25          3.1420     3.7750    -3.6310 h1         1 0ST       0.050700
     53 H26          2.9480     2.7560    -5.1330 h1         1 0ST       0.050700
     54 H27          2.3170     5.0000    -5.7650 h1         1 0ST       0.068200
     55 H28          1.2640     5.2260    -4.2720 h1         1 0ST       0.068200
     56 H29         -0.8650     3.9080    -4.2890 h1         1 0ST       0.068200
     57 H30         -1.1150     2.8770    -5.7930 h1         1 0ST       0.068200
     58 H31         -0.4050     1.5720    -3.6610 h1         1 0ST       0.050700
     59 H32          0.6070     1.3090    -5.1570 h1         1 0ST       0.050700
     60 H192         2.0960     2.5710    -0.5860 hn         1 0ST       0.468800
@<TRIPOS>BOND
     1     1     2 2   
     2     2     3 1   
     3     2    20 1   
     4     3     4 1   
     5     3    29 1   
     6     4     5 2   
     7     4    12 1   
     8     5     6 1   
     9     5    30 1   
    10     6     7 1   
    11     6    11 2   
    12     7     8 1   
    13     7     9 1   
    14     7    10 1   
    15     8    31 1   
    16     8    32 1   
    17     8    33 1   
    18     9    34 1   
    19     9    35 1   
    20     9    36 1   
    21    10    37 1   
    22    10    38 1   
    23    10    39 1   
    24    11    12 1   
    25    12    13 1   
    26    13    14 ar  
    27    13    15 ar  
    28    14    19 ar  
    29    14    40 1   
    30    15    16 ar  
    31    15    41 1   
    32    16    17 ar  
    33    16    42 1   
    34    17    18 1   
    35    17    19 ar  
    36    18    43 1   
    37    18    44 1   
    38    18    45 1   
    39    19    46 1   
    40    20    21 1   
    41    20    47 1   
    42    20    60 1   
    43    21    22 1   
    44    21    48 1   
    45    21    49 1   
    46    22    23 1   
    47    22    50 1   
    48    22    51 1   
    49    23    24 1   
    50    23    28 1   
    51    24    25 1   
    52    24    52 1   
    53    24    53 1   
    54    25    26 1   
    55    25    54 1   
    56    25    55 1   
    57    26    27 1   
    58    27    28 1   
    59    27    56 1   
    60    27    57 1   
    61    28    58 1   
    62    28    59 1   
@<TRIPOS>SUBSTRUCTURE
     1 0ST         1 TEMP              0 ****  ****    0 ROOT
