@<TRIPOS>MOLECULE
0ST
   59    61     1     0     0
SMALL
bcc


@<TRIPOS>ATOM
      1 O21          0.0000     0.0000     0.0000 o          1 0ST      -0.678100
      2 C18          1.2160     0.0000     0.0000 c          1 0ST       0.569100
      3 N17          1.8900     0.0000     1.1670 ns         1 0ST      -0.026100
      4 C11          1.1920     0.0000     2.3740 cc         1 0ST      -0.230700
      5 C12         -0.1610    -0.0010     2.5240 cd         1 0ST      -0.334300
      6 C10         -0.4420    -0.0010     3.8920 cd         1 0ST       0.391600
      7 C13         -1.8180    -0.0010     4.5090 c3         1 0ST      -0.080300
      8 C16         -2.4350    -1.3950     4.3770 c3         1 0ST       0.006900
      9 C15         -1.7130     0.3710     5.9900 c3         1 0ST       0.006900
     10 C14         -2.7000     1.0190     3.7870 c3         1 0ST       0.006900
     11 N9           0.6900    -0.0010     4.5490 nc         1 0ST      -0.656800
     12 N8           1.7390    -0.0060     3.6210 na         1 0ST       0.579300
     13 C4           3.1080    -0.0120     3.9210 ca         1 0ST      -0.134200
     14 C2           3.5790     0.6720     5.0340 ca         1 0ST      -0.110000
     15 C6           3.9950    -0.7070     3.1110 ca         1 0ST      -0.110000
     16 C5           5.3440    -0.7110     3.4100 ca         1 0ST      -0.083000
     17 C3           5.8100    -0.0250     4.5150 ca         1 0ST      -0.091300
     18 C7           7.2820    -0.0310     4.8380 c3         1 0ST       0.064200
     19 C1           4.9280     0.6640     5.3270 ca         1 0ST      -0.083000
     20 N19          1.8900    -0.0060    -1.1670 ns         1 0ST      -0.216900
     21 C20          1.1580    -0.0120    -2.4360 c3         1 0ST       0.055000
     22 C22          2.1520    -0.0170    -3.5990 c3         1 0ST       0.141800
     23 N23          1.4170    -0.0230    -4.8710 n3         1 0ST      -0.529600
     24 C28          2.3250     0.2090    -6.0050 c3         1 0ST       0.106300
     25 C27          1.5120     0.2550    -7.3010 c3         1 0ST       0.215400
     26 O25          0.7750    -0.9630    -7.4390 os         1 0ST      -0.411600
     27 C24         -0.1190    -1.2210    -6.3530 c3         1 0ST       0.215400
     28 C26          0.6770    -1.2820    -5.0460 c3         1 0ST       0.106300
     29 H1           2.8890     0.0500     1.1670 hn         1 0ST       0.168500
     30 H2          -0.8900     0.0410     1.7240 ha         1 0ST       0.194000
     31 H3          -1.7680    -2.1280     4.8150 hc         1 0ST       0.007478
     32 H4          -3.3870    -1.4190     4.8940 hc         1 0ST       0.007478
     33 H5          -2.5860    -1.6260     3.3300 hc         1 0ST       0.007478
     34 H6          -1.1290    -0.3780     6.5100 hc         1 0ST       0.007478
     35 H7          -1.2310     1.3360     6.0860 hc         1 0ST       0.007478
     36 H8          -2.7060     0.4190     6.4210 hc         1 0ST       0.007478
     37 H9          -2.1700     1.9600     3.7030 hc         1 0ST       0.007478
     38 H10         -2.9420     0.6510     2.7970 hc         1 0ST       0.007478
     39 H11         -3.6140     1.1680     4.3500 hc         1 0ST       0.007478
     40 H12          2.8890     1.2120     5.6710 ha         1 0ST       0.121000
     41 H13          3.6300    -1.2460     2.2450 ha         1 0ST       0.121000
     42 H14          6.0370    -1.2540     2.7780 ha         1 0ST       0.109500
     43 H15          7.4570    -0.6470     5.7120 hc         1 0ST       0.009367
     44 H16          7.8350    -0.4320     3.9970 hc         1 0ST       0.009367
     45 H17          7.6130     0.9810     5.0380 hc         1 0ST       0.009367
     46 H18          5.2960     1.2000     6.1940 ha         1 0ST       0.109500
     47 H19          2.8900     0.0140    -1.1670 hn         1 0ST       0.164500
     48 H20          0.5350    -0.8970    -2.4900 h1         1 0ST       0.036700
     49 H21          0.5340     0.8720    -2.4980 h1         1 0ST       0.036700
     50 H22          2.7750    -0.9010    -3.5380 h1         1 0ST       0.009700
     51 H23          2.7740     0.8680    -3.5460 h1         1 0ST       0.009700
     52 H25          2.8380     1.1530    -5.8680 h1         1 0ST       0.019450
     53 H26          3.0470    -0.5970    -6.0600 h1         1 0ST       0.019450
     54 H27          0.8240     1.0910    -7.2660 h1         1 0ST       0.014200
     55 H28          2.1830     0.3680    -8.1440 h1         1 0ST       0.014200
     56 H29         -0.8520    -0.4250    -6.2920 h1         1 0ST       0.014200
     57 H30         -0.6190    -2.1680    -6.5140 h1         1 0ST       0.014200
     58 H31          1.3770    -2.1080    -5.0890 h1         1 0ST       0.019450
     59 H32         -0.0030    -1.4180    -4.2150 h1         1 0ST       0.019450
@<TRIPOS>BOND
     1     1     2 2   
     2     2     3 1   
     3     2    20 1   
     4     3     4 1   
     5     3    29 1   
     6     4     5 2   
     7     4    12 1   
     8     5     6 1   
     9     5    30 1   
    10     6     7 1   
    11     6    11 2   
    12     7     8 1   
    13     7     9 1   
    14     7    10 1   
    15     8    31 1   
    16     8    32 1   
    17     8    33 1   
    18     9    34 1   
    19     9    35 1   
    20     9    36 1   
    21    10    37 1   
    22    10    38 1   
    23    10    39 1   
    24    11    12 1   
    25    12    13 1   
    26    13    14 ar  
    27    13    15 ar  
    28    14    19 ar  
    29    14    40 1   
    30    15    16 ar  
    31    15    41 1   
    32    16    17 ar  
    33    16    42 1   
    34    17    18 1   
    35    17    19 ar  
    36    18    43 1   
    37    18    44 1   
    38    18    45 1   
    39    19    46 1   
    40    20    21 1   
    41    20    47 1   
    42    21    22 1   
    43    21    48 1   
    44    21    49 1   
    45    22    23 1   
    46    22    50 1   
    47    22    51 1   
    48    23    24 1   
    49    23    28 1   
    50    24    25 1   
    51    24    52 1   
    52    24    53 1   
    53    25    26 1   
    54    25    54 1   
    55    25    55 1   
    56    26    27 1   
    57    27    28 1   
    58    27    56 1   
    59    27    57 1   
    60    28    58 1   
    61    28    59 1   
@<TRIPOS>SUBSTRUCTURE
     1 0ST         1 TEMP              0 ****  ****    0 ROOT
