@<TRIPOS>MOLECULE
molecule
   47    48     1     0     0
SMALL
bcc


@<TRIPOS>ATOM
      1 O23          0.0000     0.0000     0.0000 o          1 0SU      -0.638100
      2 C18          1.2160     0.0000     0.0000 c          1 0SU       0.789100
      3 N19          1.8890     0.0000     1.1680 ns         1 0SU      -0.593900
      4 C20          1.1560    -0.0000     2.4360 c3         1 0SU       0.136000
      5 C21          2.1510    -0.0010     3.5990 c3         1 0SU       0.118400
      6 O22          2.8930     1.2210     3.5910 oh         1 0SU      -0.610800
      7 N17          1.8900    -0.0070    -1.1670 ns         1 0SU      -0.473100
      8 C10          1.1930    -0.0120    -2.3750 cc         1 0SU       0.083300
      9 C11         -0.1600    -0.0120    -2.5230 cd         1 0SU      -0.343300
     10 C9          -0.4410    -0.0190    -3.8930 cd         1 0SU       0.366600
     11 C12         -1.8160    -0.0210    -4.5100 c3         1 0SU      -0.083300
     12 C15         -2.7000    -1.0360    -3.7830 c3         1 0SU      -0.080433
     13 C14         -2.4330     1.3740    -4.3850 c3         1 0SU      -0.080433
     14 C13         -1.7110    -0.4020    -5.9880 c3         1 0SU      -0.080433
     15 N8           0.6910    -0.0230    -4.5490 nc         1 0SU      -0.508800
     16 N7           1.7400    -0.0120    -3.6210 na         1 0SU       0.114300
     17 C4           3.1090    -0.0080    -3.9210 ca         1 0SU       0.038800
     18 C2           3.5810    -0.6980    -5.0300 ca         1 0SU      -0.145000
     19 C6           3.9960     0.6920    -3.1140 ca         1 0SU      -0.145000
     20 C5           5.3440     0.6950    -3.4130 ca         1 0SU      -0.110000
     21 C3           5.8120     0.0030    -4.5140 ca         1 0SU      -0.094300
     22 C16          7.2840     0.0080    -4.8380 c3         1 0SU      -0.046800
     23 C1           4.9300    -0.6910    -5.3230 ca         1 0SU      -0.110000
     24 H1           2.8900    -0.0050     1.1680 hn         1 0SU       0.316500
     25 H2           0.5330    -0.8850     2.4930 h1         1 0SU       0.064200
     26 H3           0.5340     0.8840     2.4940 h1         1 0SU       0.064200
     27 H4           2.8310    -0.8370     3.4930 h1         1 0SU       0.032200
     28 H5           1.6130    -0.0900     4.5350 h1         1 0SU       0.032200
     29 H6           3.3380     1.3240     4.4160 ho         1 0SU       0.407000
     30 H7           2.8900    -0.0530    -1.1660 hn         1 0SU       0.325500
     31 H8          -0.8880    -0.0800    -1.7240 ha         1 0SU       0.203000
     32 H9          -2.9290    -0.6690    -2.7890 hc         1 0SU       0.039367
     33 H10         -3.6210    -1.1760    -4.3360 hc         1 0SU       0.039367
     34 H11         -2.1770    -1.9820    -3.7070 hc         1 0SU       0.039367
     35 H12         -2.5710     1.6140    -3.3380 hc         1 0SU       0.039367
     36 H13         -3.3910     1.3920    -4.8900 hc         1 0SU       0.039367
     37 H14         -1.7720     2.1020    -4.8390 hc         1 0SU       0.039367
     38 H15         -1.2290    -1.3680    -6.0790 hc         1 0SU       0.039367
     39 H16         -2.7040    -0.4530    -6.4200 hc         1 0SU       0.039367
     40 H17         -1.1270     0.3440    -6.5130 hc         1 0SU       0.039367
     41 H18          2.8910    -1.2420    -5.6650 ha         1 0SU       0.147000
     42 H19          3.6310     1.2350    -2.2500 ha         1 0SU       0.147000
     43 H20          6.0360     1.2410    -2.7840 ha         1 0SU       0.136500
     44 H21          7.6990    -0.9740    -4.6470 hc         1 0SU       0.044367
     45 H22          7.7870     0.7400    -4.2170 hc         1 0SU       0.044367
     46 H23          7.4230     0.2630    -5.8820 hc         1 0SU       0.044367
     47 H24          5.2990    -1.2310    -6.1870 ha         1 0SU       0.136500
@<TRIPOS>BOND
     1     5     6 1   
     2     5     4 1   
     3     4     3 1   
     4     3     2 1   
     5     1     2 2   
     6     2     7 1   
     7     7     8 1   
     8     8     9 2   
     9     8    16 1   
    10    19    20 ar  
    11    19    17 ar  
    12    20    21 ar  
    13     9    10 1   
    14    16    17 1   
    15    16    15 1   
    16    12    11 1   
    17    17    18 ar  
    18    10    15 2   
    19    10    11 1   
    20    21    22 1   
    21    21    23 ar  
    22    11    13 1   
    23    11    14 1   
    24    18    23 ar  
    25     3    24 1   
    26     4    25 1   
    27     4    26 1   
    28     5    27 1   
    29     5    28 1   
    30     6    29 1   
    31     7    30 1   
    32     9    31 1   
    33    12    32 1   
    34    12    33 1   
    35    12    34 1   
    36    13    35 1   
    37    13    36 1   
    38    13    37 1   
    39    14    38 1   
    40    14    39 1   
    41    14    40 1   
    42    18    41 1   
    43    19    42 1   
    44    20    43 1   
    45    22    44 1   
    46    22    45 1   
    47    22    46 1   
    48    23    47 1   
@<TRIPOS>SUBSTRUCTURE
     1 0SU         1 TEMP              0 ****  ****    0 ROOT
