@<TRIPOS>MOLECULE
0SU
   48    49     1     0     0
SMALL
bcc


@<TRIPOS>ATOM
      1 O23         -0.2370     0.1820    -0.1360 o          1 0SU      -0.467100
      2 C18          0.9950     0.1740    -0.1790 c          1 0SU       0.632100
      3 N19          1.6460     0.1500     1.2150 ny         1 0SU      -0.667800
      4 C20          2.1790    -1.2030     1.5390 c3         1 0SU       0.101800
      5 C21          2.9290    -1.2250     2.8770 c3         1 0SU       0.107400
      6 O22          3.9040    -0.2010     2.8060 oh         1 0SU      -0.633800
      7 N17          1.8350     0.3110    -1.2590 ns         1 0SU      -0.364100
      8 C10          1.3240     0.1110    -2.5550 cc         1 0SU      -0.074700
      9 C11          0.0950     0.5200    -3.1070 cd         1 0SU      -0.219300
     10 C9           0.1450     0.0710    -4.4850 cd         1 0SU       0.343600
     11 C12         -0.9600     0.2760    -5.4780 c3         1 0SU      -0.081300
     12 C15         -2.2140    -0.4220    -4.9620 c3         1 0SU      -0.088767
     13 C14         -1.2250     1.7730    -5.6080 c3         1 0SU      -0.088767
     14 C13         -0.6030    -0.2880    -6.8470 c3         1 0SU      -0.088767
     15 N8           1.3280    -0.5590    -4.7310 nc         1 0SU      -0.444800
     16 N7           2.0190    -0.6050    -3.5830 na         1 0SU       0.163300
     17 C4           3.4050    -0.9430    -3.5030 ca         1 0SU      -0.024200
     18 C2           4.3200    -0.4790    -4.4680 ca         1 0SU      -0.127500
     19 C6           3.8570    -1.7780    -2.4610 ca         1 0SU      -0.127500
     20 C5           5.2040    -2.1170    -2.3810 ca         1 0SU      -0.119500
     21 C3           6.1210    -1.6500    -3.3320 ca         1 0SU      -0.047300
     22 C16          7.5480    -2.0350    -3.2550 c3         1 0SU      -0.067800
     23 C1           5.6620    -0.8350    -4.3730 ca         1 0SU      -0.119500
     24 H1           0.9120     0.4020     1.8920 hn         1 0SU       0.472800
     25 H2           2.8840    -1.5060     0.7120 hx         1 0SU       0.114200
     26 H3           1.3170    -1.9290     1.5790 hx         1 0SU       0.114200
     27 H4           3.4010    -2.2370     2.9970 h1         1 0SU       0.076200
     28 H5           2.2340    -1.0310     3.7380 h1         1 0SU       0.076200
     29 H6           4.5330    -0.3380     3.5280 ho         1 0SU       0.456000
     30 H7           2.8260     0.2050    -1.1510 hn         1 0SU       0.354500
     31 H8          -0.7220     1.0380    -2.6120 ha         1 0SU       0.191000
     32 H9          -2.4990    -0.0250    -3.9580 hc         1 0SU       0.045478
     33 H10         -3.0590    -0.2450    -5.6700 hc         1 0SU       0.045478
     34 H11         -2.0420    -1.5220    -4.8790 hc         1 0SU       0.045478
     35 H12         -1.4920     2.2110    -4.6170 hc         1 0SU       0.045478
     36 H13         -2.0730     1.9430    -6.3140 hc         1 0SU       0.045478
     37 H14         -0.3220     2.2960    -6.0030 hc         1 0SU       0.045478
     38 H15         -0.4140    -1.3860    -6.7840 hc         1 0SU       0.045478
     39 H16         -1.4500    -0.1130    -7.5530 hc         1 0SU       0.045478
     40 H17          0.3080     0.2120    -7.2540 hc         1 0SU       0.045478
     41 H18          3.9820     0.1510    -5.3080 ha         1 0SU       0.144000
     42 H19          3.1500    -2.2080    -1.7360 ha         1 0SU       0.144000
     43 H20          5.5510    -2.7790    -1.5720 ha         1 0SU       0.150000
     44 H21          7.8350    -2.3260    -2.2150 hc         1 0SU       0.059367
     45 H22          8.2060    -1.1920    -3.5830 hc         1 0SU       0.059367
     46 H23          7.7400    -2.9090    -3.9290 hc         1 0SU       0.059367
     47 H24          6.3730    -0.4730    -5.1350 ha         1 0SU       0.150000
     48 H192         2.4080     0.8370     1.2970 hn         1 0SU       0.472800
@<TRIPOS>BOND
     1     1     2 2   
     2     2     3 1   
     3     2     7 1   
     4     3     4 1   
     5     3    24 1   
     6     3    48 1   
     7     4     5 1   
     8     4    25 1   
     9     4    26 1   
    10     5     6 1   
    11     5    27 1   
    12     5    28 1   
    13     6    29 1   
    14     7     8 1   
    15     7    30 1   
    16     8     9 2   
    17     8    16 1   
    18     9    10 1   
    19     9    31 1   
    20    10    11 1   
    21    10    15 2   
    22    11    12 1   
    23    11    13 1   
    24    11    14 1   
    25    12    32 1   
    26    12    33 1   
    27    12    34 1   
    28    13    35 1   
    29    13    36 1   
    30    13    37 1   
    31    14    38 1   
    32    14    39 1   
    33    14    40 1   
    34    15    16 1   
    35    16    17 1   
    36    17    18 ar  
    37    17    19 ar  
    38    18    23 ar  
    39    18    41 1   
    40    19    20 ar  
    41    19    42 1   
    42    20    21 ar  
    43    20    43 1   
    44    21    22 1   
    45    21    23 ar  
    46    22    44 1   
    47    22    45 1   
    48    22    46 1   
    49    23    47 1   
@<TRIPOS>SUBSTRUCTURE
     1 0SU         1 TEMP              0 ****  ****    0 ROOT
