@<TRIPOS>MOLECULE
molecule
   56    57     1     0     0
SMALL
bcc


@<TRIPOS>ATOM
      1 O20          0.0000     0.0000     0.0000 o          1 0SV      -0.634100
      2 C18          1.2150     0.0000     0.0000 c          1 0SV       0.789100
      3 N19          1.8880     0.0000     1.1680 ns         1 0SV      -0.600900
      4 C21          1.1550    -0.0010     2.4360 c3         1 0SV       0.130000
      5 C22          2.1500    -0.0010     3.6000 c3         1 0SV      -0.100400
      6 C23          1.3840    -0.0020     4.9250 c3         1 0SV      -0.078400
      7 C24          2.3770    -0.0020     6.0880 c3         1 0SV      -0.080400
      8 C25          1.6110    -0.0030     7.4130 c3         1 0SV       0.141400
      9 O26          2.5390    -0.0020     8.4990 oh         1 0SV      -0.611800
     10 N17          1.8890    -0.0050    -1.1670 ns         1 0SV      -0.475100
     11 C1           1.1930    -0.0100    -2.3750 cc         1 0SV       0.082300
     12 N5           1.7410    -0.0210    -3.6200 na         1 0SV       0.115300
     13 N4           0.6930    -0.0230    -4.5490 nc         1 0SV      -0.508800
     14 C3          -0.4400    -0.0140    -3.8930 cd         1 0SV       0.366600
     15 C12         -1.8150    -0.0140    -4.5110 c3         1 0SV      -0.083300
     16 C15         -2.4280     1.3820    -4.3890 c3         1 0SV      -0.080433
     17 C14         -1.7110    -0.3970    -5.9890 c3         1 0SV      -0.080433
     18 C13         -2.7020    -1.0250    -3.7820 c3         1 0SV      -0.080433
     19 C2          -0.1600    -0.0120    -2.5240 cd         1 0SV      -0.343300
     20 C6           3.1110    -0.0280    -3.9200 ca         1 0SV       0.039800
     21 C11          4.0040     0.6590    -3.1090 ca         1 0SV      -0.145000
     22 C9           5.3520     0.6500    -3.4070 ca         1 0SV      -0.109500
     23 C7           5.8130    -0.0420    -4.5120 ca         1 0SV      -0.093300
     24 C16          7.2850    -0.0490    -4.8350 c3         1 0SV      -0.047800
     25 C8           4.9260    -0.7270    -5.3220 ca         1 0SV      -0.109500
     26 C10          3.5770    -0.7270    -5.0260 ca         1 0SV      -0.145000
     27 H1           2.8890    -0.0160     1.1690 hn         1 0SV       0.308500
     28 H2           0.5330    -0.8860     2.4920 h1         1 0SV       0.056200
     29 H3           0.5320     0.8830     2.4930 h1         1 0SV       0.056200
     30 H4           2.7720     0.8840     3.5430 hc         1 0SV       0.047700
     31 H5           2.7730    -0.8850     3.5430 hc         1 0SV       0.047700
     32 H6           0.7610     0.8820     4.9820 hc         1 0SV       0.046700
     33 H7           0.7610    -0.8870     4.9810 hc         1 0SV       0.046700
     34 H8           3.0000    -0.8860     6.0310 hc         1 0SV       0.054700
     35 H9           2.9990     0.8830     6.0310 hc         1 0SV       0.054700
     36 H10          0.9880     0.8820     7.4700 h1         1 0SV       0.020700
     37 H11          0.9890    -0.8870     7.4700 h1         1 0SV       0.020700
     38 H12          2.0680    -0.0030     9.3150 ho         1 0SV       0.403000
     39 H13          2.8900    -0.0410    -1.1660 hn         1 0SV       0.324500
     40 H14         -3.3830     1.4030    -4.9000 hc         1 0SV       0.039478
     41 H15         -1.7620     2.1100    -4.8380 hc         1 0SV       0.039478
     42 H16         -2.5730     1.6230    -3.3430 hc         1 0SV       0.039478
     43 H17         -2.7030    -0.4400    -6.4220 hc         1 0SV       0.039478
     44 H18         -1.2360    -1.3670    -6.0770 hc         1 0SV       0.039478
     45 H19         -1.1190     0.3430    -6.5130 hc         1 0SV       0.039478
     46 H20         -2.1790    -1.9710    -3.7010 hc         1 0SV       0.039478
     47 H21         -3.6210    -1.1670    -4.3390 hc         1 0SV       0.039478
     48 H22         -2.9330    -0.6550    -2.7910 hc         1 0SV       0.039478
     49 H23         -0.8900    -0.0050    -1.7240 ha         1 0SV       0.203000
     50 H24          3.6430     1.2010    -2.2430 ha         1 0SV       0.146000
     51 H25          6.0500     1.1860    -2.7750 ha         1 0SV       0.136000
     52 H26          7.6740    -1.0540    -4.7220 hc         1 0SV       0.045033
     53 H27          7.8070     0.6170    -4.1580 hc         1 0SV       0.045033
     54 H28          7.4330     0.2830    -5.8550 hc         1 0SV       0.045033
     55 H29          5.2910    -1.2700    -6.1850 ha         1 0SV       0.136000
     56 H30          2.8830    -1.2640    -5.6600 ha         1 0SV       0.146000
@<TRIPOS>BOND
     1     9     8 1   
     2     8     7 1   
     3     7     6 1   
     4     6     5 1   
     5     5     4 1   
     6     4     3 1   
     7     3     2 1   
     8     1     2 2   
     9     2    10 1   
    10    10    11 1   
    11    21    22 ar  
    12    21    20 ar  
    13    22    23 ar  
    14    11    19 2   
    15    11    12 1   
    16    19    14 1   
    17    12    20 1   
    18    12    13 1   
    19    17    15 1   
    20    20    26 ar  
    21    23    24 1   
    22    23    25 ar  
    23    14    13 2   
    24    14    15 1   
    25    15    16 1   
    26    15    18 1   
    27    26    25 ar  
    28     3    27 1   
    29     4    28 1   
    30     4    29 1   
    31     5    30 1   
    32     5    31 1   
    33     6    32 1   
    34     6    33 1   
    35     7    34 1   
    36     7    35 1   
    37     8    36 1   
    38     8    37 1   
    39     9    38 1   
    40    10    39 1   
    41    16    40 1   
    42    16    41 1   
    43    16    42 1   
    44    17    43 1   
    45    17    44 1   
    46    17    45 1   
    47    18    46 1   
    48    18    47 1   
    49    18    48 1   
    50    19    49 1   
    51    21    50 1   
    52    22    51 1   
    53    24    52 1   
    54    24    53 1   
    55    24    54 1   
    56    25    55 1   
    57    26    56 1   
@<TRIPOS>SUBSTRUCTURE
     1 0SV         1 TEMP              0 ****  ****    0 ROOT
