@<TRIPOS>MOLECULE
0SV
   57    58     1     0     0
SMALL
bcc


@<TRIPOS>ATOM
      1 O20          1.1800    -3.0060    -0.5990 o          1 0SV      -0.465100
      2 C18          1.3360    -1.8560    -0.1840 c          1 0SV       0.641100
      3 N19          1.8120    -1.8140     1.2840 ny         1 0SV      -0.674800
      4 C21          0.8050    -1.2190     2.2120 c3         1 0SV       0.101800
      5 C22          1.0560     0.2490     2.5310 c3         1 0SV      -0.106400
      6 C23          0.0410     0.7210     3.5550 c3         1 0SV      -0.078400
      7 C24          0.2560     2.1850     3.8670 c3         1 0SV      -0.088400
      8 C25         -0.7510     2.6670     4.9000 c3         1 0SV       0.136400
      9 O26         -0.4830     4.0430     5.1030 oh         1 0SV      -0.596800
     10 N17          1.0900    -0.6550    -0.7990 ns         1 0SV      -0.378100
     11 C1           0.7330    -0.6210    -2.1590 cc         1 0SV      -0.090700
     12 N5           1.6510    -0.6070    -3.2500 na         1 0SV       0.169300
     13 N4           1.0070    -0.4910    -4.4120 nc         1 0SV      -0.431800
     14 C3          -0.3340    -0.4450    -4.1450 cd         1 0SV       0.326600
     15 C12         -1.4220    -0.3270    -5.1690 c3         1 0SV      -0.079300
     16 C15         -2.2250     0.9390    -4.8860 c3         1 0SV      -0.088100
     17 C14         -2.3320    -1.5460    -5.0550 c3         1 0SV      -0.088100
     18 C13         -0.8620    -0.2550    -6.5840 c3         1 0SV      -0.088100
     19 C2          -0.5580    -0.5310    -2.7190 cd         1 0SV      -0.203300
     20 C6           3.0740    -0.6830    -3.1340 ca         1 0SV      -0.032200
     21 C11          3.6740    -1.8300    -2.5770 ca         1 0SV      -0.119500
     22 C9           5.0590    -1.8990    -2.4740 ca         1 0SV      -0.128500
     23 C7           5.8680    -0.8510    -2.9300 ca         1 0SV      -0.045300
     24 C16          7.3430    -0.9470    -2.8450 c3         1 0SV      -0.068800
     25 C8           5.2640     0.2780    -3.4970 ca         1 0SV      -0.128500
     26 C10          3.8800     0.3690    -3.6080 ca         1 0SV      -0.119500
     27 H1           2.6970    -1.3030     1.3520 hn         1 0SV       0.463800
     28 H2          -0.2180    -1.3490     1.7530 hx         1 0SV       0.113200
     29 H3           0.8360    -1.8160     3.1720 hx         1 0SV       0.113200
     30 H4           2.0910     0.3920     2.9440 hc         1 0SV       0.063700
     31 H5           0.9650     0.8790     1.6080 hc         1 0SV       0.063700
     32 H6          -0.9980     0.5650     3.1600 hc         1 0SV       0.058700
     33 H7           0.1390     0.1150     4.4950 hc         1 0SV       0.058700
     34 H8           1.2920     2.3540     4.2610 hc         1 0SV       0.063700
     35 H9           0.1480     2.8030     2.9370 hc         1 0SV       0.063700
     36 H10         -1.8010     2.5290     4.5250 h1         1 0SV       0.027700
     37 H11         -0.6310     2.1020     5.8640 h1         1 0SV       0.027700
     38 H12         -1.1100     4.3560     5.7670 ho         1 0SV       0.416000
     39 H13          1.4160     0.2020    -0.4030 hn         1 0SV       0.352500
     40 H14         -2.6500     0.9100    -3.8540 hc         1 0SV       0.044922
     41 H15         -1.5770     1.8420    -4.9850 hc         1 0SV       0.044922
     42 H16         -3.0650     1.0200    -5.6170 hc         1 0SV       0.044922
     43 H17         -1.7630    -2.4800    -5.2770 hc         1 0SV       0.044922
     44 H18         -3.1710    -1.4570    -5.7870 hc         1 0SV       0.044922
     45 H19         -2.7600    -1.6200    -4.0270 hc         1 0SV       0.044922
     46 H20         -1.7040    -0.1700    -7.3130 hc         1 0SV       0.044922
     47 H21         -0.1990     0.6350    -6.7010 hc         1 0SV       0.044922
     48 H22         -0.2770    -1.1750    -6.8240 hc         1 0SV       0.044922
     49 H23         -1.5140    -0.5190    -2.2060 ha         1 0SV       0.182000
     50 H24          3.0570    -2.6860    -2.2580 ha         1 0SV       0.154000
     51 H25          5.5270    -2.8040    -2.0530 ha         1 0SV       0.151000
     52 H26          7.7510    -1.3380    -3.8130 hc         1 0SV       0.059700
     53 H27          7.7990     0.0560    -2.6560 hc         1 0SV       0.059700
     54 H28          7.6580    -1.6410    -2.0290 hc         1 0SV       0.059700
     55 H29          5.8920     1.1010    -3.8740 ha         1 0SV       0.151000
     56 H30          3.4260     1.2540    -4.0830 ha         1 0SV       0.154000
     57 H192         1.9790    -2.7960     1.5480 hn         1 0SV       0.463800
@<TRIPOS>BOND
     1     1     2 2   
     2     2     3 1   
     3     2    10 1   
     4     3     4 1   
     5     3    27 1   
     6     3    57 1   
     7     4     5 1   
     8     4    28 1   
     9     4    29 1   
    10     5     6 1   
    11     5    30 1   
    12     5    31 1   
    13     6     7 1   
    14     6    32 1   
    15     6    33 1   
    16     7     8 1   
    17     7    34 1   
    18     7    35 1   
    19     8     9 1   
    20     8    36 1   
    21     8    37 1   
    22     9    38 1   
    23    10    11 1   
    24    10    39 1   
    25    11    12 1   
    26    11    19 2   
    27    12    13 1   
    28    12    20 1   
    29    13    14 2   
    30    14    15 1   
    31    14    19 1   
    32    15    16 1   
    33    15    17 1   
    34    15    18 1   
    35    16    40 1   
    36    16    41 1   
    37    16    42 1   
    38    17    43 1   
    39    17    44 1   
    40    17    45 1   
    41    18    46 1   
    42    18    47 1   
    43    18    48 1   
    44    19    49 1   
    45    20    21 ar  
    46    20    26 ar  
    47    21    22 ar  
    48    21    50 1   
    49    22    23 ar  
    50    22    51 1   
    51    23    24 1   
    52    23    25 ar  
    53    24    52 1   
    54    24    53 1   
    55    24    54 1   
    56    25    26 ar  
    57    25    55 1   
    58    26    56 1   
@<TRIPOS>SUBSTRUCTURE
     1 0SV         1 TEMP              0 ****  ****    0 ROOT
