@<TRIPOS>MOLECULE
molecule
   34    36     1     0     0
SMALL
bcc


@<TRIPOS>ATOM
      1 N11          0.0000     0.0000     0.0000 nu         1 0SW      -0.900900
      2 C10          1.3780     0.0000     0.0000 ca         1 0SW       0.748200
      3 C2           2.1050     0.0000     1.2150 ca         1 0SW      -0.326600
      4 C4           1.4700    -0.0010     2.4620 ca         1 0SW      -0.090000
      5 C6           2.2240    -0.0010     3.5990 ca         1 0SW      -0.148000
      6 C5           3.6140    -0.0010     3.5360 ca         1 0SW      -0.098000
      7 C3           4.2620     0.0000     2.3370 ca         1 0SW      -0.181300
      8 N8           2.0600    -0.0050    -1.1380 nb         1 0SW      -0.834000
      9 C7           3.3830    -0.0050    -1.1510 ca         1 0SW       0.728900
     10 N9           4.1080    -0.0000    -0.0580 nb         1 0SW      -0.779000
     11 C1           3.5200     0.0000     1.1480 ca         1 0SW       0.477600
     12 C12         -0.7320    -0.0070    -1.2700 c3         1 0SW       0.240800
     13 C13         -2.2370    -0.0050    -0.9900 c3         1 0SW      -0.055100
     14 C14         -2.9890    -0.0120    -2.2960 ca         1 0SW      -0.086300
     15 C19         -3.3310     1.1830    -2.9030 ca         1 0SW      -0.121000
     16 C18         -4.0170     1.1770    -4.1020 ca         1 0SW      -0.125000
     17 C16         -4.3620    -0.0230    -4.6960 ca         1 0SW      -0.126000
     18 C15         -4.0200    -1.2180    -4.0890 ca         1 0SW      -0.125000
     19 C17         -3.3350    -1.2120    -2.8880 ca         1 0SW      -0.121000
     20 H1          -0.5000     0.0290     0.8660 hn         1 0SW       0.448800
     21 H2           0.3890    -0.0010     2.5240 ha         1 0SW       0.121000
     22 H3           1.7330    -0.0020     4.5650 ha         1 0SW       0.130000
     23 H4           4.1900    -0.0010     4.4540 ha         1 0SW       0.133000
     24 H5           5.3450     0.0000     2.3030 ha         1 0SW       0.152000
     25 H6           3.8900    -0.0090    -2.1080 h5         1 0SW       0.055100
     26 H7          -0.4710     0.8740    -1.8430 h1         1 0SW       0.061200
     27 H8          -0.4710    -0.8950    -1.8330 h1         1 0SW       0.061200
     28 H9          -2.4980     0.8830    -0.4270 hc         1 0SW       0.051700
     29 H10         -2.4990    -0.8870    -0.4170 hc         1 0SW       0.051700
     30 H11         -3.0610     2.1230    -2.4380 ha         1 0SW       0.131000
     31 H12         -4.2840     2.1130    -4.5780 ha         1 0SW       0.131000
     32 H13         -4.8990    -0.0270    -5.6370 ha         1 0SW       0.131000
     33 H14         -4.2910    -2.1590    -4.5540 ha         1 0SW       0.131000
     34 H15         -3.0670    -2.1480    -2.4130 ha         1 0SW       0.131000
@<TRIPOS>BOND
     1    16    17 ar
     2    16    15 ar
     3    17    18 ar
     4    15    14 ar
     5    18    19 ar
     6    14    19 ar
     7    14    13 1
     8    13    12 1
     9    12     1 1
    10     8     9 ar
    11     8     2 ar
    12     9    10 ar
    13     1     2 1
    14     2     3 ar
    15    10    11 ar
    16    11     3 ar
    17    11     7 ar
    18     3     4 ar
    19     7     6 ar
    20     4     5 ar
    21     6     5 ar
    22     1    20 1
    23     4    21 1
    24     5    22 1
    25     6    23 1
    26     7    24 1
    27     9    25 1
    28    12    26 1
    29    12    27 1
    30    13    28 1
    31    13    29 1
    32    15    30 1
    33    16    31 1
    34    17    32 1
    35    18    33 1
    36    19    34 1
@<TRIPOS>SUBSTRUCTURE
     1 0SW         1 TEMP              0 ****  ****    0 ROOT
