@<TRIPOS>MOLECULE
0SW
   34    36     1     0     0
SMALL
bcc


@<TRIPOS>ATOM
      1 N11         -0.0600    -0.3370     0.1860 nu         1 0SW      -0.834900
      2 C10          1.2970    -0.0540     0.0200 ca         1 0SW       0.691200
      3 C2           2.1610    -0.0030     1.2060 ca         1 0SW      -0.290600
      4 C4           1.7250    -0.2890     2.5190 ca         1 0SW      -0.092000
      5 C6           2.5990    -0.2220     3.5800 ca         1 0SW      -0.144000
      6 C5           3.9480     0.1370     3.3720 ca         1 0SW      -0.104000
      7 C3           4.4080     0.4300     2.1110 ca         1 0SW      -0.180300
      8 N8           1.7920     0.2400    -1.2060 nb         1 0SW      -0.781000
      9 C7           3.1170     0.6010    -1.2670 ca         1 0SW       0.670900
     10 N9           4.0000     0.6810    -0.2750 nb         1 0SW      -0.719000
     11 C1           3.5240     0.3730     0.9890 ca         1 0SW       0.435600
     12 C12         -0.9400    -0.5430    -0.9360 c3         1 0SW       0.199800
     13 C13         -0.8150    -1.9020    -1.6370 c3         1 0SW      -0.070100
     14 C14         -1.7970    -2.0030    -2.7490 ca         1 0SW      -0.081300
     15 C19         -1.5910    -1.2840    -3.9330 ca         1 0SW      -0.126000
     16 C18         -2.5030    -1.3810    -4.9820 ca         1 0SW      -0.128500
     17 C16         -3.6270    -2.1990    -4.8590 ca         1 0SW      -0.130000
     18 C15         -3.8360    -2.9190    -3.6830 ca         1 0SW      -0.128500
     19 C17         -2.9250    -2.8220    -2.6310 ca         1 0SW      -0.126000
     20 H1          -0.2620    -0.9120     0.9750 hn         1 0SW       0.413800
     21 H2           0.6760    -0.5570     2.7190 ha         1 0SW       0.128000
     22 H3           2.2550    -0.4450     4.6010 ha         1 0SW       0.136000
     23 H4           4.6300     0.1820     4.2350 ha         1 0SW       0.137000
     24 H5           5.4590     0.7160     1.9450 ha         1 0SW       0.155000
     25 H6           3.4800     0.8450    -2.2880 h5         1 0SW       0.051100
     26 H7          -0.7750     0.2730    -1.6960 h1         1 0SW       0.070200
     27 H8          -1.9900    -0.4370    -0.5370 h1         1 0SW       0.070200
     28 H9          -0.9820    -2.7300    -0.8980 hc         1 0SW       0.056200
     29 H10          0.2250    -2.0200    -2.0460 hc         1 0SW       0.056200
     30 H11         -0.7020    -0.6410    -4.0310 ha         1 0SW       0.134500
     31 H12         -2.3350    -0.8140    -5.9090 ha         1 0SW       0.132000
     32 H13         -4.3460    -2.2760    -5.6870 ha         1 0SW       0.131000
     33 H14         -4.7200    -3.5650    -3.5830 ha         1 0SW       0.132000
     34 H15         -3.0940    -3.3940    -1.7070 ha         1 0SW       0.134500
@<TRIPOS>BOND
     1     1     2 1   
     2     1    12 1   
     3     1    20 1   
     4     2     3 ar  
     5     2     8 ar  
     6     3     4 ar  
     7     3    11 ar  
     8     4     5 ar  
     9     4    21 1   
    10     5     6 ar  
    11     5    22 1   
    12     6     7 ar  
    13     6    23 1   
    14     7    11 ar  
    15     7    24 1   
    16     8     9 ar  
    17     9    10 ar  
    18     9    25 1   
    19    10    11 ar  
    20    12    13 1   
    21    12    26 1   
    22    12    27 1   
    23    13    14 1   
    24    13    28 1   
    25    13    29 1   
    26    14    15 ar  
    27    14    19 ar  
    28    15    16 ar  
    29    15    30 1   
    30    16    17 ar  
    31    16    31 1   
    32    17    18 ar  
    33    17    32 1   
    34    18    19 ar  
    35    18    33 1   
    36    19    34 1   
@<TRIPOS>SUBSTRUCTURE
     1 0SW         1 TEMP              0 ****  ****    0 ROOT
