@<TRIPOS>MOLECULE
0SW
   34    36     1     0     0
SMALL
bcc


@<TRIPOS>ATOM
      1 N11          0.0000     0.0000     0.0000 nu         1 0SW      -0.484900
      2 C10          1.3780     0.0000     0.0000 ca         1 0SW       0.564200
      3 C2           2.1050     0.0000     1.2150 ca         1 0SW      -0.322600
      4 C4           1.4700    -0.0010     2.4620 ca         1 0SW      -0.066000
      5 C6           2.2240    -0.0010     3.5990 ca         1 0SW      -0.120000
      6 C5           3.6140    -0.0010     3.5360 ca         1 0SW      -0.071000
      7 C3           4.2620     0.0000     2.3370 ca         1 0SW      -0.157300
      8 N8           2.0600    -0.0050    -1.1380 nb         1 0SW      -0.739000
      9 C7           3.3830    -0.0050    -1.1510 ca         1 0SW       0.688900
     10 N9           4.1080    -0.0000    -0.0580 nb         1 0SW      -0.687000
     11 C1           3.5200     0.0000     1.1480 ca         1 0SW       0.443600
     12 C12         -0.7320    -0.0070    -1.2700 c3         1 0SW       0.160800
     13 C13         -2.2370    -0.0050    -0.9900 c3         1 0SW       0.019900
     14 C14         -2.9890    -0.0120    -2.2960 ca         1 0SW      -0.092300
     15 C19         -3.3310     1.1830    -2.9030 ca         1 0SW      -0.094000
     16 C18         -4.0170     1.1770    -4.1020 ca         1 0SW      -0.097000
     17 C16         -4.3620    -0.0230    -4.6960 ca         1 0SW      -0.099000
     18 C15         -4.0200    -1.2180    -4.0890 ca         1 0SW      -0.097000
     19 C17         -3.3350    -1.2120    -2.8880 ca         1 0SW      -0.094000
     20 H1          -0.5000     0.0290     0.8660 hn         1 0SW       0.299800
     21 H2           0.3890    -0.0010     2.5240 ha         1 0SW       0.098000
     22 H3           1.7330    -0.0020     4.5650 ha         1 0SW       0.104000
     23 H4           4.1900    -0.0010     4.4540 ha         1 0SW       0.102000
     24 H5           5.3450     0.0000     2.3030 ha         1 0SW       0.121000
     25 H6           3.8900    -0.0090    -2.1080 h5         1 0SW      -0.007900
     26 H7          -0.4710     0.8740    -1.8430 h1         1 0SW       0.033200
     27 H8          -0.4710    -0.8950    -1.8330 h1         1 0SW       0.033200
     28 H9          -2.4980     0.8830    -0.4270 hc         1 0SW       0.019700
     29 H10         -2.4990    -0.8870    -0.4170 hc         1 0SW       0.019700
     30 H11         -3.0610     2.1230    -2.4380 ha         1 0SW       0.105500
     31 H12         -4.2840     2.1130    -4.5780 ha         1 0SW       0.103500
     32 H13         -4.8990    -0.0270    -5.6370 ha         1 0SW       0.103000
     33 H14         -4.2910    -2.1590    -4.5540 ha         1 0SW       0.103500
     34 H15         -3.0670    -2.1480    -2.4130 ha         1 0SW       0.105500
@<TRIPOS>BOND
     1     1     2 1   
     2     1    12 1   
     3     1    20 1   
     4     2     3 ar  
     5     2     8 ar  
     6     3     4 ar  
     7     3    11 ar  
     8     4     5 ar  
     9     4    21 1   
    10     5     6 ar  
    11     5    22 1   
    12     6     7 ar  
    13     6    23 1   
    14     7    11 ar  
    15     7    24 1   
    16     8     9 ar  
    17     9    10 ar  
    18     9    25 1   
    19    10    11 ar  
    20    12    13 1   
    21    12    26 1   
    22    12    27 1   
    23    13    14 1   
    24    13    28 1   
    25    13    29 1   
    26    14    15 ar  
    27    14    19 ar  
    28    15    16 ar  
    29    15    30 1   
    30    16    17 ar  
    31    16    31 1   
    32    17    18 ar  
    33    17    32 1   
    34    18    19 ar  
    35    18    33 1   
    36    19    34 1   
@<TRIPOS>SUBSTRUCTURE
     1 0SW         1 TEMP              0 ****  ****    0 ROOT
