@<TRIPOS>MOLECULE
0SY
   27    29     1     0     0
SMALL
bcc


@<TRIPOS>ATOM
      1 CAF          0.0070    -0.0800     0.0030 cc         1 0SY      -0.085000
      2 CAO          1.4310     0.0010    -0.0010 cc         1 0SY      -0.217600
      3 CAL          2.3930    -0.0070     1.0980 c          1 0SY       0.741100
      4 OAA          2.0890    -0.0010     2.3070 o          1 0SY      -0.637500
      5 NAJ          3.7370     0.0310     0.7260 ns         1 0SY      -0.578900
      6 CAG          4.1740    -0.2660    -0.6100 c3         1 0SY       0.108000
      7 CAH          3.2680     0.2600    -1.7380 c3         1 0SY      -0.028100
      8 CAP          1.8510     0.1170    -1.3480 cd         1 0SY      -0.062600
      9 NAK          0.7330     0.1020    -2.1570 na         1 0SY      -0.147100
     10 CAN         -0.4100    -0.0160    -1.3430 cd         1 0SY      -0.105300
     11 CAM         -1.7610    -0.0600    -1.8610 ca         1 0SY       0.036000
     12 CAD         -2.8400     0.2630    -1.0190 ca         1 0SY      -0.247800
     13 CAB         -4.1430     0.2040    -1.5390 ca         1 0SY       0.400700
     14 NAI         -4.4270    -0.1420    -2.8100 nb         1 0SY      -0.665000
     15 CAC         -3.3860    -0.4500    -3.6070 ca         1 0SY       0.400700
     16 CAE         -2.0460    -0.4270    -3.1860 ca         1 0SY      -0.247800
     17 H1          -0.6280    -0.1810     0.8800 ha         1 0SY       0.173000
     18 H2           4.4140    -0.0590     1.4470 hn         1 0SY       0.319500
     19 H3           4.2720    -1.3850    -0.7410 h1         1 0SY       0.039700
     20 H4           3.5030    -0.3100    -2.6740 hc         1 0SY       0.064200
     21 H5           0.7220     0.1920    -3.1400 hn         1 0SY       0.300700
     22 H6          -2.6680     0.5580     0.0250 ha         1 0SY       0.142500
     23 H7          -5.0130     0.4500    -0.9030 h4         1 0SY       0.024100
     24 H8          -3.6440    -0.7350    -4.6430 h4         1 0SY       0.024100
     25 H9          -1.2530    -0.7090    -3.8900 ha         1 0SY       0.142500
     26 H10          5.1990     0.1840    -0.7490 h1         1 0SY       0.039700
     27 H11          3.4900     1.3450    -1.9300 hc         1 0SY       0.064200
@<TRIPOS>BOND
     1     1     2 1   
     2     1    10 2   
     3     1    17 1   
     4     2     3 1   
     5     2     8 2   
     6     3     4 2   
     7     3     5 1   
     8     5     6 1   
     9     5    18 1   
    10     6     7 1   
    11     6    19 1   
    12     6    26 1   
    13     7     8 1   
    14     7    20 1   
    15     7    27 1   
    16     8     9 1   
    17     9    10 1   
    18     9    21 1   
    19    10    11 1   
    20    11    12 ar  
    21    11    16 ar  
    22    12    13 ar  
    23    12    22 1   
    24    13    14 ar  
    25    13    23 1   
    26    14    15 ar  
    27    15    16 ar  
    28    15    24 1   
    29    16    25 1   
@<TRIPOS>SUBSTRUCTURE
     1 0SY         1 TEMP              0 ****  ****    0 ROOT
