@<TRIPOS>MOLECULE
molecule
   27    29     1     0     0
SMALL
bcc


@<TRIPOS>ATOM
      1 CAF          0.0000     0.0000     0.0000 cc         1 0SY      -0.089000
      2 CAO          1.4010     0.0000     0.0000 cc         1 0SY      -0.234600
      3 CAL          2.3830     0.0000     1.0980 c          1 0SY       0.751100
      4 OAA          2.0560    -0.2280     2.2470 o          1 0SY      -0.635500
      5 NAJ          3.6680     0.2670     0.7630 ns         1 0SY      -0.595900
      6 CAG          4.0570     0.7080    -0.5690 c3         1 0SY       0.118000
      7 CAH          3.2830     0.0000    -1.6810 c3         1 0SY      -0.029100
      8 CAP          1.8170    -0.0020    -1.3270 cd         1 0SY      -0.090600
      9 NAK          0.7320    -0.0060    -2.1020 na         1 0SY      -0.115100
     10 CAN         -0.3930    -0.0040    -1.3060 cd         1 0SY      -0.113300
     11 CAM         -1.7910    -0.0060    -1.7860 ca         1 0SY       0.039000
     12 CAD         -2.0810    -0.0180    -3.1560 ca         1 0SY      -0.257300
     13 CAB         -3.3990    -0.0250    -3.5600 ca         1 0SY       0.430200
     14 NAI         -4.3790    -0.0200    -2.6760 nb         1 0SY      -0.697000
     15 CAC         -4.1500    -0.0100    -1.3770 ca         1 0SY       0.430200
     16 CAE         -2.8620    -0.0030    -0.8840 ca         1 0SY      -0.257300
     17 H1          -0.6460     0.0020     0.8690 ha         1 0SY       0.169000
     18 H2           4.3790     0.1560     1.4590 hn         1 0SY       0.325500
     19 H3           3.8340     1.7660    -0.6400 h1         1 0SY       0.050200
     20 H4           3.6220    -1.0270    -1.7300 hc         1 0SY       0.065200
     21 H5           0.7340    -0.0100    -3.1030 hn         1 0SY       0.298700
     22 H6          -1.2810    -0.0210    -3.8870 ha         1 0SY       0.136000
     23 H7          -3.6330    -0.0330    -4.6180 h4         1 0SY       0.025100
     24 H8          -4.9860    -0.0070    -0.6870 h4         1 0SY       0.025100
     25 H9          -2.6820     0.0060     0.1840 ha         1 0SY       0.136000
     26 H10          5.1050     0.4680    -0.6990 h1         1 0SY       0.050200
     27 H11          3.4100     0.5660    -2.5970 hc         1 0SY       0.065200
@<TRIPOS>BOND
     1    13    14 ar
     2    13    12 ar
     3    14    15 ar
     4    12    11 ar
     5    15    16 ar
     6    11    16 ar
     7    11    10 1
     8     1    10 2
     9     1     2 1
    10    10     9 1
    11     4     3 2
    12     2     3 1
    13     2     8 2
    14     3     5 1
    15     9     8 1
    16     8     7 1
    17     5     6 1
    18     7     6 1
    19     1    17 1
    20     5    18 1
    21     6    19 1
    22     7    20 1
    23     9    21 1
    24    12    22 1
    25    13    23 1
    26    15    24 1
    27    16    25 1
    28     6    26 1
    29     7    27 1
@<TRIPOS>SUBSTRUCTURE
     1 0SY         1 TEMP              0 ****  ****    0 ROOT
