@<TRIPOS>MOLECULE
molecule
   36    38     1     0     0
SMALL
bcc


@<TRIPOS>ATOM
      1 OAA          0.0000     0.0000     0.0000 o          1 0SZ      -0.831300
      2 CAP          1.3470     0.0000     0.0000 c          1 0SZ       0.882200
      3 OAD          1.9540     0.0000     1.0510 o          1 0SZ      -0.831300
      4 CAQ          2.0860     0.0010    -1.2800 ca         1 0SZ      -0.124600
      5 CAL          3.4820     0.0010    -1.2840 ca         1 0SZ      -0.007000
      6 CAH          1.3900    -0.0050    -2.4900 ca         1 0SZ      -0.041000
      7 CAG          2.0860    -0.0050    -3.6820 ca         1 0SZ      -0.184000
      8 CAK          3.4700     0.0010    -3.6780 ca         1 0SZ      -0.059000
      9 CAT          4.1650    -0.0000    -2.4820 ca         1 0SZ      -0.337500
     10 SAV          5.9270     0.0010    -2.4900 sy         1 0SZ       1.427200
     11 OAB          6.3230     0.5460    -3.7410 o          1 0SZ      -0.652300
     12 OAC          6.3330     0.5450    -1.2410 o          1 0SZ      -0.652300
     13 NAU          6.4170    -1.5810    -2.4910 n3         1 0SZ      -0.821500
     14 CAN          6.6390    -2.3120    -3.7500 c3         1 0SZ       0.239800
     15 CAM          8.1210    -2.6740    -3.8290 c3         1 0SZ      -0.053100
     16 CAR          8.5970    -3.2730    -2.5320 ca         1 0SZ      -0.065300
     17 CAI          9.7610    -4.0310    -2.5600 ca         1 0SZ      -0.134000
     18 CAE         10.2560    -4.6000    -1.4050 ca         1 0SZ      -0.136000
     19 CAF          9.5920    -4.4140    -0.2070 ca         1 0SZ      -0.134000
     20 CAJ          8.4340    -3.6640    -0.1760 ca         1 0SZ      -0.122000
     21 CAS          7.9310    -3.0960    -1.3390 ca         1 0SZ      -0.078300
     22 CAO          6.6550    -2.3080    -1.2400 c3         1 0SZ       0.280100
     23 H2           4.0270     0.0000    -0.3480 ha         1 0SZ       0.165000
     24 H3           0.3070    -0.0100    -2.4940 ha         1 0SZ       0.158000
     25 H4           1.5480    -0.0070    -4.6220 ha         1 0SZ       0.112000
     26 H5           4.0110     0.0010    -4.6170 ha         1 0SZ       0.121000
     27 H6           6.0520    -3.2220    -3.7380 h1         1 0SZ       0.058200
     28 H7           6.3870    -1.6670    -4.5830 h1         1 0SZ       0.058200
     29 H8           8.2560    -3.4060    -4.6150 hc         1 0SZ       0.056200
     30 H9           8.6870    -1.7690    -4.0170 hc         1 0SZ       0.056200
     31 H10         10.2830    -4.1780    -3.4980 ha         1 0SZ       0.123000
     32 H11         11.1650    -5.1890    -1.4370 ha         1 0SZ       0.120000
     33 H12          9.9770    -4.8590     0.7020 ha         1 0SZ       0.124000
     34 H13          7.9140    -3.5180     0.7630 ha         1 0SZ       0.135000
     35 H14          5.8290    -2.9850    -1.0570 h1         1 0SZ       0.073200
     36 H15          6.7330    -1.5990    -0.4240 h1         1 0SZ       0.073200
@<TRIPOS>BOND
     1     3     2 1   
     2     1     2 1   
     3     2     4 1   
     4     4     5 ar  
     5     4     6 ar  
     6    11    10 2   
     7     5     9 ar  
     8     6     7 ar  
     9     9    10 1   
    10     9     8 ar  
    11    10    12 2   
    12    10    13 1   
    13     7     8 ar  
    14    13    14 1   
    15    13    22 1   
    16    14    15 1   
    17    22    21 1   
    18    15    16 1   
    19    21    16 ar  
    20    21    20 ar  
    21    16    17 ar  
    22    20    19 ar  
    23    17    18 ar  
    24    19    18 ar  
    25     5    23 1   
    26     6    24 1   
    27     7    25 1   
    28     8    26 1   
    29    14    27 1   
    30    14    28 1   
    31    15    29 1   
    32    15    30 1   
    33    17    31 1   
    34    18    32 1   
    35    19    33 1   
    36    20    34 1   
    37    22    35 1   
    38    22    36 1   
@<TRIPOS>SUBSTRUCTURE
     1 0SZ         1 TEMP              0 ****  ****    0 ROOT
