@<TRIPOS>MOLECULE
0SZ
   36    38     1     0     0
SMALL
bcc


@<TRIPOS>ATOM
      1 OAA         -0.0650    -0.3620    -0.5460 o          1 0SZ      -0.823300
      2 CAP          1.1660    -0.6210    -0.6440 c          1 0SZ       0.912200
      3 OAD          1.7380    -1.6250    -0.1360 o          1 0SZ      -0.823300
      4 CAQ          2.0290     0.3470    -1.4480 ca         1 0SZ      -0.157600
      5 CAL          3.4100     0.1540    -1.5260 ca         1 0SZ       0.013000
      6 CAH          1.4520     1.4200    -2.1260 ca         1 0SZ      -0.038000
      7 CAG          2.2510     2.2830    -2.8850 ca         1 0SZ      -0.188000
      8 CAK          3.6190     2.0690    -2.9690 ca         1 0SZ      -0.041000
      9 CAT          4.2270     1.0000    -2.2880 ca         1 0SZ      -0.436500
     10 SAV          5.8700     0.7750    -2.3830 sy         1 0SZ       1.520200
     11 OAB          6.4680     0.8530    -1.1030 o          1 0SZ      -0.672800
     12 OAC          6.4190     1.6730    -3.3400 o          1 0SZ      -0.672800
     13 NAU          6.0240    -0.7590    -2.9440 n3         1 0SZ      -0.805500
     14 CAN          6.0550    -1.9010    -2.0700 c3         1 0SZ       0.221800
     15 CAM          7.2620    -2.8140    -2.2990 c3         1 0SZ      -0.051100
     16 CAR          7.5340    -3.0450    -3.7420 ca         1 0SZ      -0.057300
     17 CAI          8.3560    -4.1070    -4.1370 ca         1 0SZ      -0.132000
     18 CAE          8.6370    -4.3200    -5.4840 ca         1 0SZ      -0.137000
     19 CAF          8.0990    -3.4700    -6.4520 ca         1 0SZ      -0.137000
     20 CAJ          7.2800    -2.4110    -6.0690 ca         1 0SZ      -0.127000
     21 CAS          6.9920    -2.1940    -4.7170 ca         1 0SZ      -0.075300
     22 CAO          6.0770    -1.0610    -4.3480 c3         1 0SZ       0.269100
     23 H2           3.8390    -0.6990    -0.9680 ha         1 0SZ       0.158000
     24 H3           0.3620     1.5660    -2.0480 ha         1 0SZ       0.158000
     25 H4           1.7940     3.1290    -3.4170 ha         1 0SZ       0.117000
     26 H5           4.2490     2.7430    -3.5750 ha         1 0SZ       0.136000
     27 H6           5.1120    -2.5070    -2.2150 h1         1 0SZ       0.066200
     28 H7           6.0760    -1.5400    -1.0000 h1         1 0SZ       0.066200
     29 H8           7.0670    -3.7900    -1.7800 hc         1 0SZ       0.056700
     30 H9           8.1760    -2.3580    -1.8310 hc         1 0SZ       0.056700
     31 H10          8.7780    -4.7770    -3.3740 ha         1 0SZ       0.126000
     32 H11          9.2820    -5.1570    -5.7850 ha         1 0SZ       0.121000
     33 H12          8.3210    -3.6360    -7.5150 ha         1 0SZ       0.123000
     34 H13          6.8540    -1.7390    -6.8290 ha         1 0SZ       0.130000
     35 H14          5.0400    -1.3370    -4.7130 h1         1 0SZ       0.061700
     36 H15          6.4060    -0.1310    -4.9030 h1         1 0SZ       0.061700
@<TRIPOS>BOND
     1     1     2 1   
     2     2     3 1   
     3     2     4 1   
     4     4     5 ar  
     5     4     6 ar  
     6     5     9 ar  
     7     5    23 1   
     8     6     7 ar  
     9     6    24 1   
    10     7     8 ar  
    11     7    25 1   
    12     8     9 ar  
    13     8    26 1   
    14     9    10 1   
    15    10    11 2   
    16    10    12 2   
    17    10    13 1   
    18    13    14 1   
    19    13    22 1   
    20    14    15 1   
    21    14    27 1   
    22    14    28 1   
    23    15    16 1   
    24    15    29 1   
    25    15    30 1   
    26    16    17 ar  
    27    16    21 ar  
    28    17    18 ar  
    29    17    31 1   
    30    18    19 ar  
    31    18    32 1   
    32    19    20 ar  
    33    19    33 1   
    34    20    21 ar  
    35    20    34 1   
    36    21    22 1   
    37    22    35 1   
    38    22    36 1   
@<TRIPOS>SUBSTRUCTURE
     1 0SZ         1 TEMP              0 ****  ****    0 ROOT
