@<TRIPOS>MOLECULE
0SZ
   36    38     1     0     0
SMALL
bcc


@<TRIPOS>ATOM
      1 OAA          0.0000     0.0000     0.0000 o          1 0SZ      -0.879800
      2 CAP          1.3470     0.0000     0.0000 c          1 0SZ       0.974200
      3 OAD          1.9540     0.0000     1.0510 o          1 0SZ      -0.879800
      4 CAQ          2.0860     0.0010    -1.2800 ca         1 0SZ      -0.134600
      5 CAL          3.4820     0.0010    -1.2840 ca         1 0SZ       0.024000
      6 CAH          1.3900    -0.0050    -2.4900 ca         1 0SZ      -0.012000
      7 CAG          2.0860    -0.0050    -3.6820 ca         1 0SZ      -0.172000
      8 CAK          3.4700     0.0010    -3.6780 ca         1 0SZ      -0.034000
      9 CAT          4.1650    -0.0000    -2.4820 ca         1 0SZ      -0.183500
     10 SAV          5.9270     0.0010    -2.4900 sy         1 0SZ       1.050200
     11 OAB          6.3230     0.5460    -3.7410 o          1 0SZ      -0.599800
     12 OAC          6.3330     0.5450    -1.2410 o          1 0SZ      -0.599800
     13 NAU          6.4170    -1.5810    -2.4910 n3         1 0SZ      -0.539500
     14 CAN          6.6390    -2.3120    -3.7500 c3         1 0SZ       0.236800
     15 CAM          8.1210    -2.6740    -3.8290 c3         1 0SZ       0.010900
     16 CAR          8.5970    -3.2730    -2.5320 ca         1 0SZ      -0.070300
     17 CAI          9.7610    -4.0310    -2.5600 ca         1 0SZ      -0.110000
     18 CAE         10.2560    -4.6000    -1.4050 ca         1 0SZ      -0.113000
     19 CAF          9.5920    -4.4140    -0.2070 ca         1 0SZ      -0.110000
     20 CAJ          8.4340    -3.6640    -0.1760 ca         1 0SZ      -0.094000
     21 CAS          7.9310    -3.0960    -1.3390 ca         1 0SZ      -0.084300
     22 CAO          6.6550    -2.3080    -1.2400 c3         1 0SZ       0.289100
     23 H2           4.0270     0.0000    -0.3480 ha         1 0SZ       0.139000
     24 H3           0.3070    -0.0100    -2.4940 ha         1 0SZ       0.128000
     25 H4           1.5480    -0.0070    -4.6220 ha         1 0SZ       0.090000
     26 H5           4.0110     0.0010    -4.6170 ha         1 0SZ       0.101000
     27 H6           6.0520    -3.2220    -3.7380 h1         1 0SZ       0.024200
     28 H7           6.3870    -1.6670    -4.5830 h1         1 0SZ       0.024200
     29 H8           8.2560    -3.4060    -4.6150 hc         1 0SZ       0.024700
     30 H9           8.6870    -1.7690    -4.0170 hc         1 0SZ       0.024700
     31 H10         10.2830    -4.1780    -3.4980 ha         1 0SZ       0.098000
     32 H11         11.1650    -5.1890    -1.4370 ha         1 0SZ       0.094000
     33 H12          9.9770    -4.8590     0.7020 ha         1 0SZ       0.097000
     34 H13          7.9140    -3.5180     0.7630 ha         1 0SZ       0.109000
     35 H14          5.8290    -2.9850    -1.0570 h1         1 0SZ       0.037700
     36 H15          6.7330    -1.5990    -0.4240 h1         1 0SZ       0.037700
@<TRIPOS>BOND
     1     1     2 1   
     2     2     3 1   
     3     2     4 1   
     4     4     5 ar  
     5     4     6 ar  
     6     5     9 ar  
     7     5    23 1   
     8     6     7 ar  
     9     6    24 1   
    10     7     8 ar  
    11     7    25 1   
    12     8     9 ar  
    13     8    26 1   
    14     9    10 1   
    15    10    11 2   
    16    10    12 2   
    17    10    13 1   
    18    13    14 1   
    19    13    22 1   
    20    14    15 1   
    21    14    27 1   
    22    14    28 1   
    23    15    16 1   
    24    15    29 1   
    25    15    30 1   
    26    16    17 ar  
    27    16    21 ar  
    28    17    18 ar  
    29    17    31 1   
    30    18    19 ar  
    31    18    32 1   
    32    19    20 ar  
    33    19    33 1   
    34    20    21 ar  
    35    20    34 1   
    36    21    22 1   
    37    22    35 1   
    38    22    36 1   
@<TRIPOS>SUBSTRUCTURE
     1 0SZ         1 TEMP              0 ****  ****    0 ROOT
