@<TRIPOS>MOLECULE
0T0
   41    43     1     0     0
SMALL
bcc


@<TRIPOS>ATOM
      1 CAN          0.0000     0.0000     0.0000 c3         1 0T0       0.234800
      2 CAM          1.5270     0.0000     0.0000 c3         1 0T0       0.013900
      3 CAT          2.0650     0.0000     1.4070 ca         1 0T0      -0.070300
      4 CAJ          3.3750    -0.4220     1.5970 ca         1 0T0      -0.102000
      5 CAE          3.9310    -0.4380     2.8590 ca         1 0T0      -0.099000
      6 CAF          3.1810    -0.0280     3.9450 ca         1 0T0      -0.103000
      7 CAK          1.8790     0.3880     3.7610 ca         1 0T0      -0.095000
      8 CAU          1.3160     0.4000     2.4910 ca         1 0T0      -0.100300
      9 CAO         -0.1200     0.8410     2.3620 c3         1 0T0       0.295100
     10 NAV         -0.4530     1.0320     0.9470 n3         1 0T0      -0.537500
     11 SAW         -1.3020     2.3570     0.4340 sy         1 0T0       1.059200
     12 OAC         -1.1010     3.3670     1.4130 o          1 0T0      -0.583800
     13 OAD         -0.9840     2.5320    -0.9390 o          1 0T0      -0.583800
     14 CAS         -3.0130     1.9370     0.4970 ca         1 0T0      -0.174500
     15 CAL         -3.6230     1.3670    -0.6010 ca         1 0T0       0.070000
     16 CAI         -3.7390     2.1720     1.6510 ca         1 0T0       0.025000
     17 CAG         -5.0820     1.8440     1.7090 ca         1 0T0      -0.140000
     18 CAH         -5.7050     1.2790     0.6160 ca         1 0T0      -0.034000
     19 CAR         -4.9760     1.0290    -0.5480 ca         1 0T0      -0.187600
     20 CAQ         -5.6370     0.4240    -1.7230 c          1 0T0       0.594700
     21 OAB         -4.9990     0.2080    -2.7350 o          1 0T0      -0.641100
     22 NAP         -6.9470     0.1130    -1.6730 ns         1 0T0      -0.197900
     23 CAA         -7.6030    -0.4860    -2.8380 c3         1 0T0       0.089300
     24 H1          -0.3540     0.2500    -0.9930 h1         1 0T0       0.027200
     25 H2          -0.3540    -0.9680     0.3350 h1         1 0T0       0.027200
     26 H3           1.8710     0.8980    -0.5000 hc         1 0T0       0.031200
     27 H4           1.8710    -0.8980    -0.4990 hc         1 0T0       0.031200
     28 H5           3.9640    -0.7440     0.7470 ha         1 0T0       0.105000
     29 H6           4.9540    -0.7660     2.9980 ha         1 0T0       0.102000
     30 H7           3.6130    -0.0390     4.9390 ha         1 0T0       0.102000
     31 H8           1.2920     0.7090     4.6130 ha         1 0T0       0.103000
     32 H9          -0.2570     1.7750     2.8930 h1         1 0T0       0.027200
     33 H10         -0.7670     0.0820     2.7840 h1         1 0T0       0.027200
     34 H11         -3.0510     1.1760    -1.5010 ha         1 0T0       0.145000
     35 H12         -3.2540     2.6160     2.5120 ha         1 0T0       0.122000
     36 H13         -5.6460     2.0340     2.6140 ha         1 0T0       0.111000
     37 H14         -6.7560     1.0210     0.6630 ha         1 0T0       0.100000
     38 H15         -7.4720     0.2910    -0.8400 hn         1 0T0       0.173500
     39 H16         -7.1200    -1.4250    -3.0810 h1         1 0T0       0.010700
     40 H17         -7.5270     0.1880    -3.6820 h1         1 0T0       0.010700
     41 H18         -8.6470    -0.6660    -2.6120 h1         1 0T0       0.010700
@<TRIPOS>BOND
     1     1     2 1   
     2     1    10 1   
     3     1    24 1   
     4     1    25 1   
     5     2     3 1   
     6     2    26 1   
     7     2    27 1   
     8     3     4 ar  
     9     3     8 ar  
    10     4     5 ar  
    11     4    28 1   
    12     5     6 ar  
    13     5    29 1   
    14     6     7 ar  
    15     6    30 1   
    16     7     8 ar  
    17     7    31 1   
    18     8     9 1   
    19     9    10 1   
    20     9    32 1   
    21     9    33 1   
    22    10    11 1   
    23    11    12 2   
    24    11    13 2   
    25    11    14 1   
    26    14    15 ar  
    27    14    16 ar  
    28    15    19 ar  
    29    15    34 1   
    30    16    17 ar  
    31    16    35 1   
    32    17    18 ar  
    33    17    36 1   
    34    18    19 ar  
    35    18    37 1   
    36    19    20 1   
    37    20    21 2   
    38    20    22 1   
    39    22    23 1   
    40    22    38 1   
    41    23    39 1   
    42    23    40 1   
    43    23    41 1   
@<TRIPOS>SUBSTRUCTURE
     1 0T0         1 TEMP              0 ****  ****    0 ROOT
