@<TRIPOS>MOLECULE
0T0
   42    44     1     0     0
SMALL
bcc


@<TRIPOS>ATOM
      1 CAN          0.0470     0.7420     0.5280 c3         1 0T0       0.223800
      2 CAM          1.4910     0.3750     0.1840 c3         1 0T0      -0.050100
      3 CAT          2.2200    -0.1940     1.3470 ca         1 0T0      -0.070300
      4 CAJ          3.6190    -0.2610     1.3250 ca         1 0T0      -0.121000
      5 CAE          4.3140    -0.8150     2.3960 ca         1 0T0      -0.113000
      6 CAF          3.6180    -1.3100     3.5010 ca         1 0T0      -0.119000
      7 CAK          2.2270    -1.2480     3.5320 ca         1 0T0      -0.118000
      8 CAU          1.5250    -0.6900     2.4580 ca         1 0T0      -0.104300
      9 CAO          0.0290    -0.6160     2.5460 c3         1 0T0       0.267100
     10 NAV         -0.6360    -0.2640     1.3100 n3         1 0T0      -0.825500
     11 SAW         -1.9450    -1.0280     0.7880 sy         1 0T0       1.500200
     12 OAC         -2.0660    -0.9590    -0.6140 o          1 0T0      -0.633800
     13 OAD         -2.1160    -2.2710     1.4210 o          1 0T0      -0.633800
     14 CAS         -3.2460    -0.0300     1.3830 ca         1 0T0      -0.321500
     15 CAL         -3.8070     0.9430     0.5560 ca         1 0T0       0.049000
     16 CAI         -3.7870    -0.2420     2.6520 ca         1 0T0       0.044000
     17 CAG         -4.8760     0.5160     3.1010 ca         1 0T0      -0.139000
     18 CAH         -5.4470     1.4740     2.2740 ca         1 0T0      -0.054000
     19 CAR         -4.9200     1.6800     0.9860 ca         1 0T0      -0.232600
     20 CAQ         -5.4630     2.6810     0.0710 c          1 0T0       0.580700
     21 OAB         -4.8840     3.4790    -0.6480 o          1 0T0      -0.402100
     22 NAP         -6.9870     2.7170    -0.0420 ny         1 0T0      -0.679800
     23 CAA         -7.4560     1.7970    -1.1040 c3         1 0T0       0.082100
     24 H1          -0.5240     0.9080    -0.4310 h1         1 0T0       0.056700
     25 H2           0.0480     1.7070     1.1130 h1         1 0T0       0.056700
     26 H3           1.5050    -0.3730    -0.6550 hc         1 0T0       0.070200
     27 H4           2.0070     1.3020    -0.1830 hc         1 0T0       0.070200
     28 H5           4.1670     0.1270     0.4530 ha         1 0T0       0.140000
     29 H6           5.4130    -0.8650     2.3720 ha         1 0T0       0.144000
     30 H7           4.1670    -1.7510     4.3460 ha         1 0T0       0.144000
     31 H8           1.6770    -1.6420     4.4000 ha         1 0T0       0.135000
     32 H9          -0.3640    -1.6180     2.8970 h1         1 0T0       0.063700
     33 H10         -0.2330     0.1600     3.3280 h1         1 0T0       0.063700
     34 H11         -3.3830     1.1130    -0.4540 ha         1 0T0       0.182000
     35 H12         -3.3620    -1.0300     3.3040 ha         1 0T0       0.182000
     36 H13         -5.2790     0.3500     4.1140 ha         1 0T0       0.172000
     37 H14         -6.2850     2.0800     2.6530 ha         1 0T0       0.134000
     38 H15         -7.4040     2.4490     0.8540 hn         1 0T0       0.458300
     39 H16         -6.9970     2.1000    -2.0850 hx         1 0T0       0.113033
     40 H17         -7.1490     0.7460    -0.8550 hx         1 0T0       0.113033
     41 H18         -8.5760     1.8540    -1.1800 hx         1 0T0       0.113033
     42 HAP2        -7.2820     3.6750    -0.2740 hn         1 0T0       0.458300
@<TRIPOS>BOND
     1     1     2 1   
     2     1    10 1   
     3     1    24 1   
     4     1    25 1   
     5     2     3 1   
     6     2    26 1   
     7     2    27 1   
     8     3     4 ar  
     9     3     8 ar  
    10     4     5 ar  
    11     4    28 1   
    12     5     6 ar  
    13     5    29 1   
    14     6     7 ar  
    15     6    30 1   
    16     7     8 ar  
    17     7    31 1   
    18     8     9 1   
    19     9    10 1   
    20     9    32 1   
    21     9    33 1   
    22    10    11 1   
    23    11    12 2   
    24    11    13 2   
    25    11    14 1   
    26    14    15 ar  
    27    14    16 ar  
    28    15    19 ar  
    29    15    34 1   
    30    16    17 ar  
    31    16    35 1   
    32    17    18 ar  
    33    17    36 1   
    34    18    19 ar  
    35    18    37 1   
    36    19    20 1   
    37    20    21 2   
    38    20    22 1   
    39    22    23 1   
    40    22    38 1   
    41    22    42 1   
    42    23    39 1   
    43    23    40 1   
    44    23    41 1   
@<TRIPOS>SUBSTRUCTURE
     1 0T0         1 TEMP              0 ****  ****    0 ROOT
