@<TRIPOS>MOLECULE
0T2
   64    68     1     0     0
SMALL
bcc


@<TRIPOS>ATOM
      1 C1           0.0000     0.0000     0.0000 c3         1 0T2       0.195100
      2 N2           1.4650     0.0000     0.0000 nh         1 0T2      -0.305700
      3 C3           2.1650     0.0000     1.2120 ca         1 0T2       0.014600
      4 C4           2.9490     1.0920     1.5610 ca         1 0T2      -0.059000
      5 C5           3.6410     1.0920     2.7570 ca         1 0T2      -0.118000
      6 C6           3.5550     0.0060     3.6100 ca         1 0T2       0.107900
      7 F7           4.2320     0.0100     4.7790 f          1 0T2      -0.125900
      8 C8           2.7690    -1.0890     3.2650 ca         1 0T2      -0.122400
      9 N9           2.6750    -2.1840     4.1310 ns         1 0T2      -0.035100
     10 C10          1.5900    -2.9830     4.0930 c          1 0T2       0.578700
     11 O11          0.6490    -2.6950     3.3800 o          1 0T2      -0.624100
     12 C12          1.5450    -4.2080     4.9180 ca         1 0T2      -0.127600
     13 C13          2.6260    -4.5410     5.7380 ca         1 0T2      -0.105000
     14 C14          2.5800    -5.6850     6.5060 ca         1 0T2      -0.059000
     15 C15          1.4670    -6.5060     6.4690 ca         1 0T2      -0.195000
     16 C16          0.3880    -6.1850     5.6580 ca         1 0T2       0.133100
     17 O17         -0.7030    -6.9950     5.6260 os         1 0T2      -0.284900
     18 C18         -0.6460    -8.1900     6.4060 c3         1 0T2       0.287900
     19 C19         -1.9890    -8.9200     6.3200 c3         1 0T2      -0.024100
     20 C20          0.4630    -9.0970     5.8700 c3         1 0T2      -0.024100
     21 C21         -0.3640    -7.8470     7.8100 c1         1 0T2       0.160700
     22 N22         -0.1270    -7.5870     8.8900 n1         1 0T2      -0.353800
     23 C23          0.4210    -5.0340     4.8850 ca         1 0T2      -0.027600
     24 Cl2         -0.9280    -4.6290     3.8700 cl         1 0T2       0.056600
     25 C25          2.0700    -1.0890     2.0680 ca         1 0T2      -0.093000
     26 C26          2.1610     0.0020    -1.2050 ca         1 0T2       0.521200
     27 C27          1.4570     0.0070    -2.4080 ca         1 0T2      -0.291300
     28 C28          2.1380     0.0080    -3.5910 ca         1 0T2       0.024000
     29 C29          3.5520     0.0060    -3.5690 ca         1 0T2      -0.082900
     30 N30          4.4150     0.0080    -4.6040 nc         1 0T2      -0.490100
     31 C31          5.6740     0.0030    -4.3360 cd         1 0T2       0.288800
     32 N32          6.6850     0.0050    -5.2840 ns         1 0T2       0.017600
     33 C33          7.9750     0.0020    -4.8940 c          1 0T2       0.588100
     34 O34          8.2510    -0.0020    -3.7130 o          1 0T2      -0.600100
     35 C35          9.0740     0.0030    -5.9260 cx         1 0T2      -0.220700
     36 C36         10.5170    -0.0030    -5.4200 cx         1 0T2      -0.046400
     37 C37          9.9240    -1.2640    -6.0540 cx         1 0T2      -0.046400
     38 S38          5.9310    -0.0010    -2.5960 ss         1 0T2      -0.223500
     39 C39          4.1880     0.0020    -2.3250 ca         1 0T2       0.466600
     40 N40          3.4810     0.0050    -1.1970 nb         1 0T2      -0.591000
     41 H1          -0.3610    -0.9980    -0.2170 h1         1 0T2       0.014700
     42 H2          -0.3610     0.6870    -0.7560 h1         1 0T2       0.014700
     43 H3          -0.3610     0.3110     0.9730 h1         1 0T2       0.014700
     44 H4           3.0630     1.9200     0.8720 ha         1 0T2       0.118000
     45 H5           4.2530     1.9430     3.0290 ha         1 0T2       0.122000
     46 H6           3.4440    -2.8190     4.2190 hn         1 0T2       0.166500
     47 H7           3.4680    -3.8650     5.8260 ha         1 0T2       0.117000
     48 H8           3.4170    -5.9440     7.1430 ha         1 0T2       0.110000
     49 H9           1.4360    -7.4030     7.0750 ha         1 0T2       0.144000
     50 H10         -2.2280    -9.1160     5.2820 hc         1 0T2       0.026867
     51 H11         -2.7640    -8.3040     6.7590 hc         1 0T2       0.026867
     52 H12         -1.9250    -9.8580     6.8590 hc         1 0T2       0.026867
     53 H13          1.0770    -9.4420     6.6940 hc         1 0T2       0.026867
     54 H14          0.0210    -9.9500     5.3680 hc         1 0T2       0.026867
     55 H15          1.0760    -8.5430     5.1700 hc         1 0T2       0.026867
     56 H16          1.4970    -1.9600     1.7740 ha         1 0T2       0.158000
     57 H17          0.4260     0.3380    -2.4310 ha         1 0T2       0.128000
     58 H18          1.5960     0.0120    -4.5290 ha         1 0T2       0.113000
     59 H19          6.4700     0.1820    -6.2450 hn         1 0T2       0.175500
     60 H20          8.8670     0.3130    -6.9430 hc         1 0T2       0.066700
     61 H21         10.6350    -0.0080    -4.3430 hc         1 0T2       0.053700
     62 H22         11.2340     0.5160    -6.0440 hc         1 0T2       0.053700
     63 H23          9.6620    -2.0720    -5.3820 hc         1 0T2       0.053700
     64 H24         10.2930    -1.4800    -7.0490 hc         1 0T2       0.053700
@<TRIPOS>BOND
     1     1     2 1   
     2     1    41 1   
     3     1    42 1   
     4     1    43 1   
     5     2     3 1   
     6     2    26 1   
     7     3     4 ar  
     8     3    25 ar  
     9     4     5 ar  
    10     4    44 1   
    11     5     6 ar  
    12     5    45 1   
    13     6     7 1   
    14     6     8 ar  
    15     8     9 1   
    16     8    25 ar  
    17     9    10 1   
    18     9    46 1   
    19    10    11 2   
    20    10    12 1   
    21    12    13 ar  
    22    12    23 ar  
    23    13    14 ar  
    24    13    47 1   
    25    14    15 ar  
    26    14    48 1   
    27    15    16 ar  
    28    15    49 1   
    29    16    17 1   
    30    16    23 ar  
    31    17    18 1   
    32    18    19 1   
    33    18    20 1   
    34    18    21 1   
    35    19    50 1   
    36    19    51 1   
    37    19    52 1   
    38    20    53 1   
    39    20    54 1   
    40    20    55 1   
    41    21    22 3   
    42    23    24 1   
    43    25    56 1   
    44    26    27 ar  
    45    26    40 ar  
    46    27    28 ar  
    47    27    57 1   
    48    28    29 ar  
    49    28    58 1   
    50    29    30 1   
    51    29    39 ar  
    52    30    31 2   
    53    31    32 1   
    54    31    38 1   
    55    32    33 1   
    56    32    59 1   
    57    33    34 2   
    58    33    35 1   
    59    35    36 1   
    60    35    37 1   
    61    35    60 1   
    62    36    37 1   
    63    36    61 1   
    64    36    62 1   
    65    37    63 1   
    66    37    64 1   
    67    38    39 1   
    68    39    40 ar  
@<TRIPOS>SUBSTRUCTURE
     1 0T2         1 TEMP              0 ****  ****    0 ROOT
