@<TRIPOS>MOLECULE
0T2
   64    68     1     0     0
SMALL
bcc


@<TRIPOS>ATOM
      1 C1          -0.0710    -1.1160    -0.4610 c3         1 0T2       0.188100
      2 N2           1.3610    -1.2340    -0.6300 nh         1 0T2      -0.630700
      3 C3           2.1380    -1.0780     0.5540 ca         1 0T2       0.142600
      4 C4           3.1030    -0.0610     0.6910 ca         1 0T2      -0.167000
      5 C5           3.8670     0.0300     1.8450 ca         1 0T2      -0.120000
      6 C6           3.6770    -0.8710     2.9010 ca         1 0T2       0.051900
      7 F7           4.4370    -0.7540     4.0200 f          1 0T2      -0.146900
      8 C8           2.6960    -1.9070     2.7940 ca         1 0T2       0.058600
      9 N9           2.5350    -2.7970     3.8660 ns         1 0T2      -0.460100
     10 C10          1.4740    -3.6650     4.0760 c          1 0T2       0.687700
     11 O11          0.4960    -3.7520     3.3130 o          1 0T2      -0.573100
     12 C12          1.5380    -4.4760     5.3350 ca         1 0T2      -0.135600
     13 C13          0.4600    -4.3590     6.2180 ca         1 0T2      -0.078000
     14 C14          0.4430    -5.0870     7.4060 ca         1 0T2      -0.126000
     15 C15          1.4930    -5.9470     7.7130 ca         1 0T2      -0.115000
     16 C16          2.5640    -6.0900     6.8200 ca         1 0T2       0.086100
     17 O17          3.6620    -6.8480     7.1990 os         1 0T2      -0.324900
     18 C18          3.5720    -8.2740     6.9760 c3         1 0T2       0.230900
     19 C19          2.4950    -8.9020     7.8540 c3         1 0T2      -0.105600
     20 C20          4.9600    -8.7870     7.3700 c3         1 0T2      -0.105600
     21 C21          3.3080    -8.5830     5.5700 c1         1 0T2       0.179700
     22 N22          3.1050    -8.8550     4.4590 n1         1 0T2      -0.336800
     23 C23          2.5990    -5.3470     5.6220 ca         1 0T2       0.035400
     24 Cl2          3.8950    -5.5060     4.5410 cl         1 0T2      -0.048400
     25 C25          1.9480    -1.9980     1.6070 ca         1 0T2      -0.152000
     26 C26          1.9340    -0.7390    -1.8360 ca         1 0T2       0.627200
     27 C27          3.2880    -1.1270    -2.1480 ca         1 0T2      -0.251300
     28 C28          3.8580    -0.7620    -3.3480 ca         1 0T2      -0.037000
     29 C29          3.0890     0.0000    -4.2560 ca         1 0T2      -0.029900
     30 N30          3.4860     0.4580    -5.5080 nc         1 0T2      -0.575100
     31 C31          2.4680     1.1440    -6.0620 cd         1 0T2       0.387800
     32 N32          2.5570     1.7320    -7.3230 ns         1 0T2      -0.461400
     33 C33          1.5130     2.4380    -7.9150 c          1 0T2       0.690100
     34 O34          0.4270     2.5870    -7.3270 o          1 0T2      -0.569100
     35 C35          1.7940     3.0230    -9.2610 cx         1 0T2      -0.212700
     36 C36          2.4470     2.2100   -10.3470 cx         1 0T2      -0.111400
     37 C37          0.9910     2.5530   -10.4450 cx         1 0T2      -0.111400
     38 S38          1.0100     1.2580    -5.0990 ss         1 0T2       0.018500
     39 C39          1.7460     0.3510    -3.8640 ca         1 0T2       0.372600
     40 N40          1.1810     0.0070    -2.6890 nb         1 0T2      -0.670000
     41 H1          -0.3740    -1.6720     0.4660 h1         1 0T2       0.051700
     42 H2          -0.4080    -0.0480    -0.3710 h1         1 0T2       0.051700
     43 H3          -0.5760    -1.5820    -1.3480 h1         1 0T2       0.051700
     44 H4           3.2650     0.6670    -0.1200 ha         1 0T2       0.151000
     45 H5           4.6260     0.8200     1.9490 ha         1 0T2       0.152000
     46 H6           3.2580    -2.7760     4.5540 hn         1 0T2       0.335500
     47 H7          -0.3780    -3.6920     5.9590 ha         1 0T2       0.159000
     48 H8          -0.4030    -4.9810     8.1030 ha         1 0T2       0.147000
     49 H9           1.5000    -6.5140     8.6570 ha         1 0T2       0.152000
     50 H10          2.6650    -8.6060     8.9170 hc         1 0T2       0.059367
     51 H11          1.4800    -8.5610     7.5390 hc         1 0T2       0.059367
     52 H12          2.5450   -10.0140     7.7710 hc         1 0T2       0.059367
     53 H13          5.7440    -8.2860     6.7550 hc         1 0T2       0.059367
     54 H14          5.0050    -9.8890     7.2090 hc         1 0T2       0.059367
     55 H15          5.1460    -8.5580     8.4460 hc         1 0T2       0.059367
     56 H16          1.2020    -2.8060     1.4960 ha         1 0T2       0.186000
     57 H17          3.8570    -1.7250    -1.4210 ha         1 0T2       0.157000
     58 H18          4.8870    -1.0560    -3.6030 ha         1 0T2       0.155000
     59 H19          3.4170     1.6370    -7.8200 hn         1 0T2       0.341500
     60 H20          2.0370     4.1020    -9.1730 hc         1 0T2       0.115700
     61 H21          2.7380     1.1630   -10.1440 hc         1 0T2       0.083700
     62 H22          3.1680     2.7120   -11.0170 hc         1 0T2       0.083700
     63 H23          0.2370     1.7590   -10.2960 hc         1 0T2       0.083700
     64 H24          0.6580     3.3040   -11.1830 hc         1 0T2       0.083700
@<TRIPOS>BOND
     1     1     2 1   
     2     1    41 1   
     3     1    42 1   
     4     1    43 1   
     5     2     3 1   
     6     2    26 1   
     7     3     4 ar  
     8     3    25 ar  
     9     4     5 ar  
    10     4    44 1   
    11     5     6 ar  
    12     5    45 1   
    13     6     7 1   
    14     6     8 ar  
    15     8     9 1   
    16     8    25 ar  
    17     9    10 1   
    18     9    46 1   
    19    10    11 2   
    20    10    12 1   
    21    12    13 ar  
    22    12    23 ar  
    23    13    14 ar  
    24    13    47 1   
    25    14    15 ar  
    26    14    48 1   
    27    15    16 ar  
    28    15    49 1   
    29    16    17 1   
    30    16    23 ar  
    31    17    18 1   
    32    18    19 1   
    33    18    20 1   
    34    18    21 1   
    35    19    50 1   
    36    19    51 1   
    37    19    52 1   
    38    20    53 1   
    39    20    54 1   
    40    20    55 1   
    41    21    22 3   
    42    23    24 1   
    43    25    56 1   
    44    26    27 ar  
    45    26    40 ar  
    46    27    28 ar  
    47    27    57 1   
    48    28    29 ar  
    49    28    58 1   
    50    29    30 1   
    51    29    39 ar  
    52    30    31 2   
    53    31    32 1   
    54    31    38 1   
    55    32    33 1   
    56    32    59 1   
    57    33    34 2   
    58    33    35 1   
    59    35    36 1   
    60    35    37 1   
    61    35    60 1   
    62    36    37 1   
    63    36    61 1   
    64    36    62 1   
    65    37    63 1   
    66    37    64 1   
    67    38    39 1   
    68    39    40 ar  
@<TRIPOS>SUBSTRUCTURE
     1 0T2         1 TEMP              0 ****  ****    0 ROOT
