@<TRIPOS>MOLECULE
molecule
   64    68     1     0     0
SMALL
bcc


@<TRIPOS>ATOM
      1 C1           0.0000     0.0000     0.0000 c3         1 0T2       0.235100
      2 N2           1.4650     0.0000     0.0000 nh         1 0T2      -0.701700
      3 C3           2.1650     0.0000     1.2120 ca         1 0T2       0.152600
      4 C4           2.9490     1.0920     1.5610 ca         1 0T2      -0.093000
      5 C5           3.6410     1.0920     2.7570 ca         1 0T2      -0.156000
      6 C6           3.5550     0.0060     3.6100 ca         1 0T2       0.129900
      7 F7           4.2320     0.0100     4.7790 f          1 0T2      -0.136900
      8 C8           2.7690    -1.0890     3.2650 ca         1 0T2      -0.006400
      9 N9           2.6750    -2.1840     4.1310 ns         1 0T2      -0.420100
     10 C10          1.5900    -2.9830     4.0930 c          1 0T2       0.640700
     11 O11          0.6490    -2.6950     3.3800 o          1 0T2      -0.571100
     12 C12          1.5450    -4.2080     4.9180 ca         1 0T2      -0.116600
     13 C13          2.6260    -4.5410     5.7380 ca         1 0T2      -0.126000
     14 C14          2.5800    -5.6850     6.5060 ca         1 0T2      -0.097000
     15 C15          1.4670    -6.5060     6.4690 ca         1 0T2      -0.188000
     16 C16          0.3880    -6.1850     5.6580 ca         1 0T2       0.126100
     17 O17         -0.7030    -6.9950     5.6260 os         1 0T2      -0.296900
     18 C18         -0.6460    -8.1900     6.4060 c3         1 0T2       0.222900
     19 C19         -1.9890    -8.9200     6.3200 c3         1 0T2      -0.099600
     20 C20          0.4630    -9.0970     5.8700 c3         1 0T2      -0.099600
     21 C21         -0.3640    -7.8470     7.8100 c1         1 0T2       0.181700
     22 N22         -0.1270    -7.5870     8.8900 n1         1 0T2      -0.343800
     23 C23          0.4210    -5.0340     4.8850 ca         1 0T2       0.054400
     24 Cl2         -0.9280    -4.6290     3.8700 cl         1 0T2      -0.043400
     25 C25          2.0700    -1.0890     2.0680 ca         1 0T2      -0.118000
     26 C26          2.1610     0.0020    -1.2050 ca         1 0T2       0.710200
     27 C27          1.4570     0.0070    -2.4080 ca         1 0T2      -0.302300
     28 C28          2.1380     0.0080    -3.5910 ca         1 0T2      -0.012000
     29 C29          3.5520     0.0060    -3.5690 ca         1 0T2      -0.030900
     30 N30          4.4150     0.0080    -4.6040 nc         1 0T2      -0.624100
     31 C31          5.6740     0.0030    -4.3360 cd         1 0T2       0.439800
     32 N32          6.6850     0.0050    -5.2840 ns         1 0T2      -0.439400
     33 C33          7.9750     0.0020    -4.8940 c          1 0T2       0.694100
     34 O34          8.2510    -0.0020    -3.7130 o          1 0T2      -0.581100
     35 C35          9.0740     0.0030    -5.9260 cx         1 0T2      -0.239700
     36 C36         10.5170    -0.0030    -5.4200 cx         1 0T2      -0.103900
     37 C37          9.9240    -1.2640    -6.0540 cx         1 0T2      -0.103900
     38 S38          5.9310    -0.0010    -2.5960 ss         1 0T2      -0.074500
     39 C39          4.1880     0.0020    -2.3250 ca         1 0T2       0.456600
     40 N40          3.4810     0.0050    -1.1970 nb         1 0T2      -0.724000
     41 H1          -0.3610    -0.9980    -0.2170 h1         1 0T2       0.045700
     42 H2          -0.3610     0.6870    -0.7560 h1         1 0T2       0.045700
     43 H3          -0.3610     0.3110     0.9730 h1         1 0T2       0.045700
     44 H4           3.0630     1.9200     0.8720 ha         1 0T2       0.150000
     45 H5           4.2530     1.9430     3.0290 ha         1 0T2       0.150000
     46 H6           3.4440    -2.8190     4.2190 hn         1 0T2       0.303500
     47 H7           3.4680    -3.8650     5.8260 ha         1 0T2       0.146000
     48 H8           3.4170    -5.9440     7.1430 ha         1 0T2       0.143000
     49 H9           1.4360    -7.4030     7.0750 ha         1 0T2       0.155000
     50 H10         -2.2280    -9.1160     5.2820 hc         1 0T2       0.060033
     51 H11         -2.7640    -8.3040     6.7590 hc         1 0T2       0.060033
     52 H12         -1.9250    -9.8580     6.8590 hc         1 0T2       0.060033
     53 H13          1.0770    -9.4420     6.6940 hc         1 0T2       0.060033
     54 H14          0.0210    -9.9500     5.3680 hc         1 0T2       0.060033
     55 H15          1.0760    -8.5430     5.1700 hc         1 0T2       0.060033
     56 H16          1.4970    -1.9600     1.7740 ha         1 0T2       0.178000
     57 H17          0.4260     0.3380    -2.4310 ha         1 0T2       0.144000
     58 H18          1.5960     0.0120    -4.5290 ha         1 0T2       0.149000
     59 H19          6.4700     0.1820    -6.2450 hn         1 0T2       0.343500
     60 H20          8.8670     0.3130    -6.9430 hc         1 0T2       0.093700
     61 H21         10.6350    -0.0080    -4.3430 hc         1 0T2       0.087950
     62 H22         11.2340     0.5160    -6.0440 hc         1 0T2       0.087950
     63 H23          9.6620    -2.0720    -5.3820 hc         1 0T2       0.087950
     64 H24         10.2930    -1.4800    -7.0490 hc         1 0T2       0.087950
@<TRIPOS>BOND
     1    20    18 1   
     2    19    18 1   
     3    22    21 3   
     4    18    21 1   
     5    18    17 1   
     6    17    16 1   
     7    16    15 ar  
     8    16    23 ar  
     9    15    14 ar  
    10    24    23 1   
    11    23    12 ar  
    12    14    13 ar  
    13    12    13 ar  
    14    12    10 1   
    15    11    10 2   
    16    10     9 1   
    17     9     8 1   
    18     8    25 ar  
    19     8     6 ar  
    20    25     3 ar  
    21     7     6 1   
    22     6     5 ar  
    23     3     2 1   
    24     3     4 ar  
    25    27    28 ar  
    26    27    26 ar  
    27     1     2 1   
    28     2    26 1   
    29    28    29 ar  
    30    26    40 ar  
    31    40    39 ar  
    32    29    39 ar  
    33    29    30 1   
    34    39    38 1   
    35    30    31 2   
    36     5     4 ar  
    37    31    38 1   
    38    31    32 1   
    39    37    36 1   
    40    37    35 1   
    41    32    33 1   
    42    34    33 2   
    43    36    35 1   
    44    33    35 1   
    45     1    41 1   
    46     1    42 1   
    47     1    43 1   
    48     4    44 1   
    49     5    45 1   
    50     9    46 1   
    51    13    47 1   
    52    14    48 1   
    53    15    49 1   
    54    19    50 1   
    55    19    51 1   
    56    19    52 1   
    57    20    53 1   
    58    20    54 1   
    59    20    55 1   
    60    25    56 1   
    61    27    57 1   
    62    28    58 1   
    63    32    59 1   
    64    35    60 1   
    65    36    61 1   
    66    36    62 1   
    67    37    63 1   
    68    37    64 1   
@<TRIPOS>SUBSTRUCTURE
     1 0T2         1 TEMP              0 ****  ****    0 ROOT
