@<TRIPOS>MOLECULE
molecule
   30    32     1     0     0
SMALL
bcc


@<TRIPOS>ATOM
      1 C01          0.0000     0.0000     0.0000 c3         1 0T3      -0.366400
      2 C02          1.5310     0.0000     0.0000 c3         1 0T3      -0.396400
      3 C03          2.0480     0.0000     1.4430 c3         1 0T3       0.228300
      4 N04          1.3800    -1.0730     2.1820 na         1 0T3      -0.222900
      5 C05          1.7400    -1.6350     3.3480 cc         1 0T3       0.430400
      6 N06          0.8670    -2.5610     3.6510 nd         1 0T3      -0.675000
      7 C07         -0.0720    -2.6180     2.6930 cd         1 0T3       0.293200
      8 C08          0.2310    -1.6980     1.7680 cc         1 0T3      -0.158900
      9 C09         -0.5080    -1.3600     0.4980 c3         1 0T3      -0.270100
     10 C10          3.5370    -0.2330     1.4470 ca         1 0T3      -0.121300
     11 C11          4.3820     0.7190     1.9900 ca         1 0T3      -0.089500
     12 C12          5.7450     0.5110     1.9960 ca         1 0T3      -0.099000
     13 C13          6.2720    -0.6630     1.4550 ca         1 0T3       0.006000
     14 C14          5.4140    -1.6190     0.9080 ca         1 0T3      -0.099000
     15 C15          4.0520    -1.4010     0.9120 ca         1 0T3      -0.089500
     16 C16          7.6880    -0.8820     1.4530 cg         1 0T3       0.231800
     17 N17          8.8070    -1.0750     1.4580 n1         1 0T3      -0.346800
     18 H1          -0.3480     0.1010    -1.0210 hc         1 0T3       0.165200
     19 H2          -0.3480    -0.9440     0.4010 hc         1 0T3       0.165200
     20 H3           1.8570    -0.0950     1.0290 hc         1 0T3       0.135700
     21 H4           1.8570     0.9110    -0.4870 hc         1 0T3       0.135700
     22 H5           1.8230     0.9530     1.9080 h1         1 0T3       0.042700
     23 H6           2.6090    -1.3710     3.9400 h5         1 0T3       0.081100
     24 H7          -0.9220    -3.2900     2.6740 h4         1 0T3       0.057100
     25 H8          -1.4940    -1.5130     0.0770 hc         1 0T3       0.176200
     26 H9          -0.6100    -1.2940     1.5750 hc         1 0T3       0.176200
     27 H10          3.9730     1.6290     2.4110 ha         1 0T3       0.155000
     28 H11          6.4050     1.2570     2.4210 ha         1 0T3       0.150500
     29 H12          5.8180    -2.5320     0.4870 ha         1 0T3       0.150500
     30 H13          3.3850    -2.1450     0.4930 ha         1 0T3       0.155000
@<TRIPOS>BOND
     1    17    16 3   
     2    16    13 1   
     3    13    14 ar  
     4    13    12 ar  
     5    14    15 ar  
     6    12    11 ar  
     7    15    10 ar  
     8    11    10 ar  
     9    10     3 1   
    10     1     2 1   
    11     1     9 1   
    12     2     3 1   
    13     3     4 1   
    14     9     8 1   
    15     4     8 1   
    16     4     5 1   
    17     8     7 2   
    18     5     6 2   
    19     7     6 1   
    20     1    18 1   
    21     1    19 1   
    22     2    20 1   
    23     2    21 1   
    24     3    22 1   
    25     5    23 1   
    26     7    24 1   
    27     9    25 1   
    28     9    26 1   
    29    11    27 1   
    30    12    28 1   
    31    14    29 1   
    32    15    30 1   
@<TRIPOS>SUBSTRUCTURE
     1 0T3         1 TEMP              0 ****  ****    0 ROOT
