@<TRIPOS>MOLECULE
0T3
   30    33     1     0     0
SMALL
bcc


@<TRIPOS>ATOM
      1 C01          0.0000     0.0000     0.0000 c3         1 0T3      -0.415000
      2 C02          1.5310     0.0000     0.0000 c3         1 0T3      -0.394000
      3 C03          2.0480     0.0000     1.4430 c3         1 0T3       0.317000
      4 N04          1.3800    -1.0730     2.1820 n3         1 0T3       0.279000
      5 C05          1.7400    -1.6350     3.3480 c2         1 0T3      -0.234000
      6 N06          0.8670    -2.5610     3.6510 n2         1 0T3      -0.069000
      7 C07         -0.0720    -2.6180     2.6930 c2         1 0T3      -0.181000
      8 C08          0.2310    -1.6980     1.7680 c3         1 0T3      -0.194000
      9 C09         -0.5080    -1.3600     0.4980 c3         1 0T3      -0.160000
     10 C10          3.5370    -0.2330     1.4470 ca         1 0T3      -0.127000
     11 C11          4.3820     0.7190     1.9900 ca         1 0T3      -0.063500
     12 C12          5.7450     0.5110     1.9960 ca         1 0T3      -0.076500
     13 C13          6.2720    -0.6630     1.4550 ca         1 0T3       0.054000
     14 C14          5.4140    -1.6190     0.9080 ca         1 0T3      -0.076500
     15 C15          4.0520    -1.4010     0.9120 ca         1 0T3      -0.063500
     16 C16          7.6880    -0.8820     1.4530 c1         1 0T3      -0.108000
     17 N17          8.8070    -1.0750     1.4580 n1         1 0T3      -0.040000
     18 H1          -0.3480     0.1010    -1.0210 hc         1 0T3       0.138500
     19 H2          -0.3480    -0.9440     0.4010 hc         1 0T3       0.138500
     20 H3           1.8570    -0.0950     1.0290 hc         1 0T3       0.034000
     21 H4           1.8570     0.9110    -0.4870 hc         1 0T3       0.034000
     22 H5           1.8230     0.9530     1.9080 h1         1 0T3       0.054000
     23 H6           2.6090    -1.3710     3.9400 h5         1 0T3       0.172000
     24 H7          -0.9220    -3.2900     2.6740 h4         1 0T3       0.154000
     25 H8          -1.4940    -1.5130     0.0770 hc         1 0T3       0.160000
     26 H9          -0.6100    -1.2940     1.5750 DU         1 0T3       0.183000
     27 H10          3.9730     1.6290     2.4110 ha         1 0T3       0.122000
     28 H11          6.4050     1.2570     2.4210 ha         1 0T3       0.119000
     29 H12          5.8180    -2.5320     0.4870 ha         1 0T3       0.119000
     30 H13          3.3850    -2.1450     0.4930 ha         1 0T3       0.122000
@<TRIPOS>BOND
     1     1     2 1   
     2     1     9 1   
     3     1    18 1   
     4     1    19 1   
     5     2     3 1   
     6     2    20 1   
     7     2    21 1   
     8     3     4 1   
     9     3    10 1   
    10     3    22 1   
    11     4     5 1   
    12     4     8 1   
    13     5     6 1   
    14     5    23 1   
    15     6     7 1   
    16     7     8 1   
    17     7    24 1   
    18     8     9 1   
    19     8    26 1   
    20     9    25 1   
    21     9    26 1   
    22    10    11 1   
    23    10    15 1   
    24    11    12 1   
    25    11    27 1   
    26    12    13 1   
    27    12    28 1   
    28    13    14 1   
    29    13    16 1   
    30    14    15 1   
    31    14    29 1   
    32    15    30 1   
    33    16    17 1   
@<TRIPOS>SUBSTRUCTURE
     1 0T3         1 TEMP              0 ****  ****    0 ROOT
