@<TRIPOS>MOLECULE
0T3
   30    32     1     0     0
SMALL
bcc


@<TRIPOS>ATOM
      1 C01         -0.2140     0.0310     0.1340 c3         1 0T3      -0.082400
      2 C02          1.2870    -0.0880    -0.0190 c3         1 0T3      -0.082400
      3 C03          2.0290    -0.0530     1.3370 c3         1 0T3       0.102300
      4 N04          1.4850     0.9590     2.2070 na         1 0T3      -0.205900
      5 C05          2.0130     1.4720     3.3990 cc         1 0T3       0.398400
      6 N06          1.1840     2.3870     3.9450 nd         1 0T3      -0.666000
      7 C07          0.0820     2.4680     3.0960 cd         1 0T3       0.294200
      8 C08          0.2410     1.5860     2.0090 cc         1 0T3      -0.211900
      9 C09         -0.6090     1.3220     0.8320 c3         1 0T3      -0.005100
     10 C10          2.0490    -1.4420     1.9390 ca         1 0T3      -0.087300
     11 C11          3.1620    -2.2570     1.6920 ca         1 0T3      -0.122000
     12 C12          3.2150    -3.5510     2.2010 ca         1 0T3      -0.090500
     13 C13          2.1510    -4.0430     2.9700 ca         1 0T3      -0.012000
     14 C14          1.0380    -3.2290     3.2230 ca         1 0T3      -0.090500
     15 C15          0.9910    -1.9350     2.7060 ca         1 0T3      -0.122000
     16 C16          2.2020    -5.3630     3.4930 cg         1 0T3       0.230800
     17 N17          2.2430    -6.4450     3.9200 n1         1 0T3      -0.355800
     18 H1          -0.6950    -0.0050    -0.8780 hc         1 0T3       0.052200
     19 H2          -0.5970    -0.8450     0.7230 hc         1 0T3       0.052200
     20 H3           1.6650     0.7570    -0.6530 hc         1 0T3       0.059200
     21 H4           1.5460    -1.0490    -0.5340 hc         1 0T3       0.059200
     22 H5           3.1060     0.2420     1.1300 h1         1 0T3       0.067700
     23 H6           2.9780     1.1540     3.8040 h5         1 0T3       0.063100
     24 H7          -0.7490     3.1410     3.3020 h4         1 0T3       0.042100
     25 H8          -1.6830     1.2680     1.1540 hc         1 0T3       0.060200
     26 H9          -0.5140     2.1830     0.1160 hc         1 0T3       0.060200
     27 H10          4.0020    -1.8760     1.0910 ha         1 0T3       0.147000
     28 H11          4.0910    -4.1870     2.0020 ha         1 0T3       0.149000
     29 H12          0.2030    -3.6100     3.8300 ha         1 0T3       0.149000
     30 H13          0.1110    -1.3040     2.9130 ha         1 0T3       0.147000
@<TRIPOS>BOND
     1     1     2 1   
     2     1     9 1   
     3     1    18 1   
     4     1    19 1   
     5     2     3 1   
     6     2    20 1   
     7     2    21 1   
     8     3     4 1   
     9     3    10 1   
    10     3    22 1   
    11     4     5 1   
    12     4     8 1   
    13     5     6 2   
    14     5    23 1   
    15     6     7 1   
    16     7     8 2   
    17     7    24 1   
    18     8     9 1   
    19     9    25 1   
    20     9    26 1   
    21    10    11 ar  
    22    10    15 ar  
    23    11    12 ar  
    24    11    27 1   
    25    12    13 ar  
    26    12    28 1   
    27    13    14 ar  
    28    13    16 1   
    29    14    15 ar  
    30    14    29 1   
    31    15    30 1   
    32    16    17 3   
@<TRIPOS>SUBSTRUCTURE
     1 0T3         1 TEMP              0 ****  ****    0 ROOT
