@<TRIPOS>MOLECULE
0T4
   39    40     1     0     0
SMALL
bcc


@<TRIPOS>ATOM
      1 O15          0.7210    -1.8450    -0.4930 o          1 0T4      -0.410100
      2 C14          1.6900    -1.1060    -0.4030 c          1 0T4       0.576700
      3 C4           2.2780    -0.5290     0.8130 ca         1 0T4      -0.177600
      4 C5           1.3970    -0.1200     1.8200 ca         1 0T4      -0.028000
      5 C6           1.9230     0.4280     2.9930 ca         1 0T4      -0.146300
      6 C7           0.9640     0.8730     4.1020 c3         1 0T4       0.691200
      7 F29         -0.2400     1.3370     3.6330 f          1 0T4      -0.217967
      8 F27          1.4510     1.8860     4.8860 f          1 0T4      -0.217967
      9 F28          0.6370    -0.1300     4.9780 f          1 0T4      -0.217967
     10 C1           3.2950     0.5550     3.1760 ca         1 0T4      -0.040000
     11 C3           3.6660    -0.4230     0.9800 ca         1 0T4      -0.116000
     12 C2           4.1880     0.1300     2.1640 ca         1 0T4       0.079600
     13 N8           5.6050     0.3510     2.2590 nu         1 0T4      -0.444100
     14 O10          5.9910     0.7000     3.4900 oh         1 0T4      -0.400300
     15 N13          2.3620    -0.7190    -1.7040 ny         1 0T4      -0.685800
     16 C12          1.3760    -0.2420    -2.7620 c3         1 0T4       0.198800
     17 C13          1.9580    -0.4310    -4.1570 c3         1 0T4      -0.130100
     18 C20          1.0000     1.1850    -2.5070 ca         1 0T4      -0.179300
     19 C21          1.9470     2.2090    -2.6400 ca         1 0T4      -0.107500
     20 C22          1.5730     3.5340    -2.4310 ca         1 0T4      -0.115000
     21 C23          0.2530     3.8440    -2.0940 ca         1 0T4      -0.082000
     22 C24         -0.6920     2.8260    -1.9640 ca         1 0T4      -0.115000
     23 C25         -0.3210     1.4960    -2.1660 ca         1 0T4      -0.107500
     24 H1           0.3050    -0.2260     1.6960 ha         1 0T4       0.182000
     25 H2           3.6920     0.9840     4.1170 ha         1 0T4       0.195000
     26 H3           4.3550    -0.7940     0.2060 ha         1 0T4       0.138000
     27 H6           3.0400     0.0310    -1.5250 hn         1 0T4       0.455800
     28 H7           0.4630    -0.9100    -2.6570 hx         1 0T4       0.122700
     29 H8           2.1750    -1.5070    -4.3670 hc         1 0T4       0.078700
     30 H9           2.8870     0.1710    -4.3060 hc         1 0T4       0.078700
     31 H10          1.1940    -0.0780    -4.8960 hc         1 0T4       0.078700
     32 H11          2.9830     1.9790    -2.9310 ha         1 0T4       0.138000
     33 H12          2.3170     4.3400    -2.5410 ha         1 0T4       0.160000
     34 H13         -0.0420     4.8940    -1.9350 ha         1 0T4       0.161000
     35 H14         -1.7350     3.0690    -1.7050 ha         1 0T4       0.160000
     36 H15         -1.0750     0.6990    -2.0690 ha         1 0T4       0.138000
     37 H141         6.0920    -0.5150     2.0220 hn         1 0T4       0.402800
     38 H151         6.2630     1.6390     3.4160 ho         1 0T4       0.446000
     39 H132         2.8590    -1.5370    -2.0730 hn         1 0T4       0.455800
@<TRIPOS>BOND
     1     1     2 2   
     2     2     3 1   
     3     2    15 1   
     4     3     4 ar  
     5     3    11 ar  
     6     4     5 ar  
     7     4    24 1   
     8     5     6 1   
     9     5    10 ar  
    10     6     7 1   
    11     6     8 1   
    12     6     9 1   
    13    10    12 ar  
    14    10    25 1   
    15    11    12 ar  
    16    11    26 1   
    17    12    13 1   
    18    13    14 1   
    19    13    37 1   
    20    14    38 1   
    21    15    16 1   
    22    15    27 1   
    23    15    39 1   
    24    16    17 1   
    25    16    18 1   
    26    16    28 1   
    27    17    29 1   
    28    17    30 1   
    29    17    31 1   
    30    18    19 ar  
    31    18    23 ar  
    32    19    20 ar  
    33    19    32 1   
    34    20    21 ar  
    35    20    33 1   
    36    21    22 ar  
    37    21    34 1   
    38    22    23 ar  
    39    22    35 1   
    40    23    36 1   
@<TRIPOS>SUBSTRUCTURE
     1 0T4         1 TEMP              0 ****  ****    0 ROOT
