@<TRIPOS>MOLECULE
molecule
   38    39     1     0     0
SMALL
bcc


@<TRIPOS>ATOM
      1 O15          0.0000     0.0000     0.0000 o          1 0T4      -0.604100
      2 C14          1.2160     0.0000     0.0000 c          1 0T4       0.674700
      3 C4           1.9560     0.0000     1.2810 ca         1 0T4      -0.107600
      4 C5           1.2590     0.0010     2.4910 ca         1 0T4      -0.078000
      5 C6           1.9520     0.0010     3.6850 ca         1 0T4      -0.144300
      6 C7           1.1980     0.0020     4.9900 c3         1 0T4       0.676200
      7 F29          0.9650    -1.3160     5.3940 f          1 0T4      -0.221633
      8 F27          1.9540     0.6620     5.9640 f          1 0T4      -0.221633
      9 F28         -0.0240     0.6620     4.8220 f          1 0T4      -0.221633
     10 C1           3.3340    -0.0000     3.6880 ca         1 0T4      -0.150000
     11 C3           3.3500    -0.0080     1.2830 ca         1 0T4      -0.140000
     12 C2           4.0370    -0.0010     2.4880 ca         1 0T4       0.215600
     13 N8           5.4330    -0.0010     2.4960 nu         1 0T4      -0.639100
     14 O10          6.1490    -0.0030     1.2740 oh         1 0T4      -0.342300
     15 N13          1.8890    -0.0070    -1.1670 ns         1 0T4      -0.577900
     16 C12          1.1580    -0.0130    -2.4350 c3         1 0T4       0.163000
     17 C13          0.7920    -1.4520    -2.8070 c3         1 0T4      -0.104100
     18 C20          2.0210     0.5810    -3.5170 ca         1 0T4      -0.096300
     19 C21          1.4650     1.4200    -4.4640 ca         1 0T4      -0.122500
     20 C22          2.2570     1.9660    -5.4570 ca         1 0T4      -0.123500
     21 C23          3.6080     1.6720    -5.5020 ca         1 0T4      -0.126000
     22 C24          4.1640     0.8330    -4.5550 ca         1 0T4      -0.123500
     23 C25          3.3720     0.2920    -3.5600 ca         1 0T4      -0.122500
     24 H1           0.1770    -0.0450     2.4930 ha         1 0T4       0.173000
     25 H2           3.8720     0.0030     4.6280 ha         1 0T4       0.145000
     26 H3           3.8950    -0.0090     0.3470 ha         1 0T4       0.148000
     27 H6           2.8900     0.0100    -1.1670 hn         1 0T4       0.320500
     28 H7           0.2530     0.5740    -2.3330 h1         1 0T4       0.085700
     29 H8           1.1810    -2.1290    -2.0560 hc         1 0T4       0.046700
     30 H9           1.2230    -1.6960    -3.7710 hc         1 0T4       0.046700
     31 H10         -0.2850    -1.5490    -2.8590 hc         1 0T4       0.046700
     32 H11          0.4070     1.6510    -4.4280 ha         1 0T4       0.131000
     33 H12          1.8210     2.6230    -6.1990 ha         1 0T4       0.131500
     34 H13          4.2290     2.0970    -6.2810 ha         1 0T4       0.131000
     35 H14          5.2230     0.6040    -4.5890 ha         1 0T4       0.131500
     36 H15          3.8090    -0.3660    -2.8180 ha         1 0T4       0.131000
     37 H141         5.9290    -0.0050     3.3660 hn         1 0T4       0.458800
     38 H151         7.0750    -0.0010     1.4520 ho         1 0T4       0.411000
@<TRIPOS>BOND
     1     2     1 2   
     2     2    15 1   
     3     3     2 1   
     4     4     3 ar  
     5     4    24 1   
     6     5     4 ar  
     7     6     5 1   
     8     6     7 1   
     9     8     6 1   
    10     9     6 1   
    11    10     5 ar  
    12    10    12 ar  
    13    10    25 1   
    14    11     3 ar  
    15    11    26 1   
    16    12    11 ar  
    17    13    12 1   
    18    14    13 1   
    19    15    16 1   
    20    15    27 1   
    21    16    18 1   
    22    16    28 1   
    23    17    16 1   
    24    17    29 1   
    25    17    30 1   
    26    17    31 1   
    27    18    19 ar  
    28    18    23 ar  
    29    19    20 ar  
    30    19    32 1   
    31    20    21 ar  
    32    20    33 1   
    33    21    34 1   
    34    22    21 ar  
    35    22    35 1   
    36    23    22 ar  
    37    23    36 1   
    38    13    37 1   
    39    14    38 1   
@<TRIPOS>SUBSTRUCTURE
     1 0T4         1 TEMP              0 ****  ****    0 ROOT
