@<TRIPOS>MOLECULE
0T4
   38    39     1     0     0
SMALL
bcc


@<TRIPOS>ATOM
      1 O15          0.0000     0.0000     0.0000 o          1 0T4      -0.645100
      2 C14          1.2160     0.0000     0.0000 c          1 0T4       0.596700
      3 C4           1.9560     0.0000     1.2810 ca         1 0T4      -0.112600
      4 C5           1.2590     0.0010     2.4910 ca         1 0T4      -0.040000
      5 C6           1.9520     0.0010     3.6850 ca         1 0T4      -0.171300
      6 C7           1.1980     0.0020     4.9900 c3         1 0T4       0.639200
      7 F29          0.9650    -1.3160     5.3940 f          1 0T4      -0.207633
      8 F27          1.9540     0.6620     5.9640 f          1 0T4      -0.207633
      9 F28         -0.0240     0.6620     4.8220 f          1 0T4      -0.207633
     10 C1           3.3340    -0.0000     3.6880 ca         1 0T4      -0.116000
     11 C3           3.3500    -0.0080     1.2830 ca         1 0T4      -0.123000
     12 C2           4.0370    -0.0010     2.4880 ca         1 0T4       0.058600
     13 N8           5.4330    -0.0010     2.4960 nu         1 0T4      -0.207100
     14 O10          6.1490    -0.0030     1.2740 oh         1 0T4      -0.428300
     15 N13          1.8890    -0.0070    -1.1670 ns         1 0T4      -0.200900
     16 C12          1.1580    -0.0130    -2.4350 c3         1 0T4       0.079000
     17 C13          0.7920    -1.4520    -2.8070 c3         1 0T4      -0.013100
     18 C20          2.0210     0.5810    -3.5170 ca         1 0T4      -0.106300
     19 C21          1.4650     1.4200    -4.4640 ca         1 0T4      -0.095000
     20 C22          2.2570     1.9660    -5.4570 ca         1 0T4      -0.095000
     21 C23          3.6080     1.6720    -5.5020 ca         1 0T4      -0.099000
     22 C24          4.1640     0.8330    -4.5550 ca         1 0T4      -0.095000
     23 C25          3.3720     0.2920    -3.5600 ca         1 0T4      -0.095000
     24 H1           0.1770    -0.0450     2.4930 ha         1 0T4       0.143000
     25 H2           3.8720     0.0030     4.6280 ha         1 0T4       0.120000
     26 H3           3.8950    -0.0090     0.3470 ha         1 0T4       0.124000
     27 H6           2.8900     0.0100    -1.1670 hn         1 0T4       0.188500
     28 H7           0.2530     0.5740    -2.3330 h1         1 0T4       0.060700
     29 H8           1.1810    -2.1290    -2.0560 hc         1 0T4       0.014033
     30 H9           1.2230    -1.6960    -3.7710 hc         1 0T4       0.014033
     31 H10         -0.2850    -1.5490    -2.8590 hc         1 0T4       0.014033
     32 H11          0.4070     1.6510    -4.4280 ha         1 0T4       0.107000
     33 H12          1.8210     2.6230    -6.1990 ha         1 0T4       0.104000
     34 H13          4.2290     2.0970    -6.2810 ha         1 0T4       0.104000
     35 H14          5.2230     0.6040    -4.5890 ha         1 0T4       0.104000
     36 H15          3.8090    -0.3660    -2.8180 ha         1 0T4       0.107000
     37 H141         5.9290    -0.0050     3.3660 hn         1 0T4       0.283800
     38 H151         7.0750    -0.0010     1.4520 ho         1 0T4       0.405000
@<TRIPOS>BOND
     1     1     2 2   
     2     2     3 1   
     3     2    15 1   
     4     3     4 ar  
     5     3    11 ar  
     6     4     5 ar  
     7     4    24 1   
     8     5     6 1   
     9     5    10 ar  
    10     6     7 1   
    11     6     8 1   
    12     6     9 1   
    13    10    12 ar  
    14    10    25 1   
    15    11    12 ar  
    16    11    26 1   
    17    12    13 1   
    18    13    14 1   
    19    13    37 1   
    20    14    38 1   
    21    15    16 1   
    22    15    27 1   
    23    16    17 1   
    24    16    18 1   
    25    16    28 1   
    26    17    29 1   
    27    17    30 1   
    28    17    31 1   
    29    18    19 ar  
    30    18    23 ar  
    31    19    20 ar  
    32    19    32 1   
    33    20    21 ar  
    34    20    33 1   
    35    21    22 ar  
    36    21    34 1   
    37    22    23 ar  
    38    22    35 1   
    39    23    36 1   
@<TRIPOS>SUBSTRUCTURE
     1 0T4         1 TEMP              0 ****  ****    0 ROOT
