@<TRIPOS>MOLECULE
molecule
   37    38     1     0     0
SMALL
bcc


@<TRIPOS>ATOM
      1 O38          0.0000     0.0000     0.0000 o          1 0T5      -0.195500
      2 N8           1.2180     0.0000     0.0000 no         1 0T5       0.294200
      3 O10          1.8270     0.0000     1.0560 o          1 0T5      -0.195500
      4 C2           1.9590    -0.0050    -1.2820 ca         1 0T5      -0.167200
      5 C1           3.3420    -0.0090    -1.2790 ca         1 0T5      -0.012000
      6 C6           4.0420    -0.0150    -2.4730 ca         1 0T5      -0.197300
      7 C7           5.5490    -0.0200    -2.4610 c3         1 0T5       0.681200
      8 F28          6.0250     1.1200    -3.1190 f          1 0T5      -0.214300
      9 F27          6.0050    -0.0200    -1.1390 f          1 0T5      -0.214300
     10 F29          6.0160    -1.1650    -3.1150 f          1 0T5      -0.214300
     11 C5           3.3630    -0.0140    -3.6740 ca         1 0T5       0.013000
     12 C3           1.2680    -0.0090    -2.4750 ca         1 0T5      -0.030000
     13 C4           1.9670    -0.0090    -3.6830 ca         1 0T5      -0.151600
     14 C14          1.2340    -0.0080    -4.9660 c          1 0T5       0.673700
     15 O15          1.8450    -0.0120    -6.0160 o          1 0T5      -0.594100
     16 N13         -0.1150    -0.0030    -4.9720 ns         1 0T5      -0.574900
     17 C12         -0.8420    -0.0030    -6.2440 c3         1 0T5       0.164000
     18 C13         -0.9810     1.4340    -6.7500 c3         1 0T5      -0.105100
     19 C20         -2.2120    -0.5980    -6.0400 ca         1 0T5      -0.102300
     20 C25         -2.7480    -1.4410    -6.9950 ca         1 0T5      -0.122000
     21 C24         -4.0040    -1.9870    -6.8070 ca         1 0T5      -0.120500
     22 C23         -4.7230    -1.6900    -5.6650 ca         1 0T5      -0.123000
     23 C22         -4.1860    -0.8480    -4.7100 ca         1 0T5      -0.120500
     24 C21         -2.9290    -0.3060    -4.8950 ca         1 0T5      -0.122000
     25 H11          3.8800    -0.0100    -0.3380 ha         1 0T5       0.187000
     26 H51          3.9120    -0.0160    -4.6070 ha         1 0T5       0.183000
     27 H31          0.1840    -0.0050    -2.4750 ha         1 0T5       0.166000
     28 H131        -0.6190    -0.0260    -4.1080 hn         1 0T5       0.319500
     29 H121        -0.2970    -0.5920    -6.9720 h1         1 0T5       0.086700
     30 H132        -0.5260     2.1130    -6.0390 hc         1 0T5       0.048033
     31 H134        -2.0300     1.6780    -6.8620 hc         1 0T5       0.048033
     32 H133        -0.4840     1.5290    -7.7080 hc         1 0T5       0.048033
     33 H251        -2.1840    -1.6730    -7.8900 ha         1 0T5       0.130000
     34 H241        -4.4250    -2.6480    -7.5560 ha         1 0T5       0.135000
     35 H231        -5.7080    -2.1160    -5.5190 ha         1 0T5       0.134000
     36 H221        -4.7490    -0.6170    -3.8130 ha         1 0T5       0.135000
     37 H211        -2.5080     0.3540    -4.1460 ha         1 0T5       0.130000
@<TRIPOS>BOND
     1     2     1 1
     2     2     4 1
     3     3     2 1
     4     4    12 ar
     5     5     4 ar
     6     5     6 ar
     7     5    25 1
     8     6    11 ar
     9     7     6 1
    10     7     9 1
    11     8     7 1
    12    10     7 1
    13    11    13 ar
    14    11    26 1
    15    12    13 ar
    16    12    27 1
    17    13    14 1
    18    14    15 2
    19    16    14 1
    20    16    17 1
    21    16    28 1
    22    17    19 1
    23    17    29 1
    24    18    17 1
    25    18    30 1
    26    18    31 1
    27    18    32 1
    28    19    20 ar
    29    19    24 ar
    30    20    21 ar
    31    20    33 1
    32    21    22 ar
    33    21    34 1
    34    22    35 1
    35    23    22 ar
    36    23    36 1
    37    24    23 ar
    38    24    37 1
@<TRIPOS>SUBSTRUCTURE
     1 0T5         1 TEMP              0 ****  ****    0 ROOT
