@<TRIPOS>MOLECULE
0T5
   38    39     1     0     0
SMALL
bcc


@<TRIPOS>ATOM
      1 O38          0.3390     0.3620     0.2640 o          1 0T5      -0.166500
      2 N8           1.1820    -0.3840    -0.1530 no         1 0T5       0.320200
      3 O10          1.5000    -1.4000     0.3870 o          1 0T5      -0.166500
      4 C2           1.8630    -0.0110    -1.4330 ca         1 0T5      -0.182200
      5 C1           2.8090    -0.8820    -2.0000 ca         1 0T5       0.035000
      6 C6           3.4290    -0.5100    -3.1950 ca         1 0T5      -0.174300
      7 C7           4.4540    -1.4510    -3.8430 c3         1 0T5       0.695200
      8 F28          5.1050    -2.2600    -2.9500 f          1 0T5      -0.211300
      9 F27          3.8930    -2.3040    -4.7600 f          1 0T5      -0.211300
     10 F29          5.4430    -0.7940    -4.5270 f          1 0T5      -0.211300
     11 C5           3.1250     0.6990    -3.8180 ca         1 0T5       0.024000
     12 C3           1.5390     1.2070    -2.0440 ca         1 0T5      -0.022000
     13 C4           2.1650     1.5540    -3.2460 ca         1 0T5      -0.201600
     14 C14          1.8990     2.8210    -3.9400 c          1 0T5       0.573700
     15 O15          2.6860     3.4590    -4.6280 o          1 0T5      -0.408100
     16 N13          0.5100     3.3950    -3.8080 ny         1 0T5      -0.683800
     17 C12         -0.1170     3.7370    -5.1580 c3         1 0T5       0.202800
     18 C13         -1.1880     4.8060    -4.9860 c3         1 0T5      -0.132100
     19 C20         -0.6640     2.4970    -5.7930 ca         1 0T5      -0.185300
     20 C25         -1.7570     1.8250    -5.2280 ca         1 0T5      -0.108500
     21 C24         -2.2770     0.6940    -5.8530 ca         1 0T5      -0.115000
     22 C23         -1.7150     0.2320    -7.0460 ca         1 0T5      -0.080000
     23 C22         -0.6300     0.9030    -7.6120 ca         1 0T5      -0.115000
     24 C21         -0.1000     2.0310    -6.9870 ca         1 0T5      -0.108500
     25 H11          3.0660    -1.8410    -1.5030 ha         1 0T5       0.217000
     26 H51          3.6440     0.9890    -4.7530 ha         1 0T5       0.194000
     27 H31          0.8140     1.8750    -1.5420 ha         1 0T5       0.172000
     28 H131         0.5630     4.2570    -3.2520 hn         1 0T5       0.458800
     29 H121         0.7250     4.1630    -5.7900 hx         1 0T5       0.123700
     30 H132        -1.6100     5.0300    -6.0000 hc         1 0T5       0.081700
     31 H134        -2.0250     4.4590    -4.3330 hc         1 0T5       0.081700
     32 H133        -0.7600     5.7510    -4.5700 hc         1 0T5       0.081700
     33 H251        -2.2270     2.1980    -4.3050 ha         1 0T5       0.139000
     34 H241        -3.1400     0.1710    -5.4110 ha         1 0T5       0.162000
     35 H231        -2.1340    -0.6580    -7.5430 ha         1 0T5       0.164000
     36 H221        -0.1920     0.5450    -8.5580 ha         1 0T5       0.162000
     37 H211         0.7490     2.5610    -7.4470 ha         1 0T5       0.139000
     38 H135        -0.1020     2.7240    -3.3290 hn         1 0T5       0.458800
@<TRIPOS>BOND
     1     1     2 1   
     2     2     3 1   
     3     2     4 1   
     4     4     5 ar  
     5     4    12 ar  
     6     5     6 ar  
     7     5    25 1   
     8     6     7 1   
     9     6    11 ar  
    10     7     8 1   
    11     7     9 1   
    12     7    10 1   
    13    11    13 ar  
    14    11    26 1   
    15    12    13 ar  
    16    12    27 1   
    17    13    14 1   
    18    14    15 2   
    19    14    16 1   
    20    16    17 1   
    21    16    28 1   
    22    16    38 1   
    23    17    18 1   
    24    17    19 1   
    25    17    29 1   
    26    18    30 1   
    27    18    31 1   
    28    18    32 1   
    29    19    20 ar  
    30    19    24 ar  
    31    20    21 ar  
    32    20    33 1   
    33    21    22 ar  
    34    21    34 1   
    35    22    23 ar  
    36    22    35 1   
    37    23    24 ar  
    38    23    36 1   
    39    24    37 1   
@<TRIPOS>SUBSTRUCTURE
     1 0T5         1 TEMP              0 ****  ****    0 ROOT
