@<TRIPOS>MOLECULE
0T6
   40    43     1     0     0
SMALL
bcc


@<TRIPOS>ATOM
      1 C1          -0.0740    -0.1010     0.0130 c3         1 0T6      -0.025900
      2 C2           1.3980    -0.0710    -0.0450 cc         1 0T6       0.103400
      3 C3           2.2810    -0.0070     1.0620 cd         1 0T6       0.205500
      4 N1           2.0620     0.0500     2.4550 nd         1 0T6      -0.235000
      5 N2           3.0050     0.1100     3.2410 nc         1 0T6      -0.242000
      6 C4           4.3620     0.1290     2.7970 ca         1 0T6       0.207600
      7 C5           4.6910     0.0740     1.3930 ca         1 0T6       0.042400
      8 N3           3.6100    -0.0050     0.5090 na         1 0T6      -0.210000
      9 C6           3.4540    -0.0710    -0.8860 cd         1 0T6       0.439400
     10 N4           2.1380    -0.1070    -1.2250 nc         1 0T6      -0.541300
     11 C7           4.5580    -0.0950    -1.8520 ca         1 0T6      -0.106900
     12 C8           4.9100     1.0880    -2.5130 ca         1 0T6      -0.085000
     13 C9           5.9240     1.0810    -3.4680 ca         1 0T6      -0.136000
     14 C10          6.5880    -0.1070    -3.7730 ca         1 0T6      -0.105000
     15 C11          6.2410    -1.2920    -3.1280 ca         1 0T6      -0.132000
     16 C12          5.2230    -1.2900    -2.1670 ca         1 0T6       0.042400
     17 Cl1          4.8080    -2.7450    -1.3990 cl         1 0T6      -0.070400
     18 C13          6.0260     0.1060     0.9670 ca         1 0T6      -0.223000
     19 C14          7.0450     0.1850     1.9250 ca         1 0T6       0.205100
     20 C15          6.7650     0.2340     3.2960 ca         1 0T6      -0.310000
     21 C16          5.4360     0.2060     3.7270 ca         1 0T6       0.174800
     22 O1           5.0790     0.2520     5.0530 os         1 0T6      -0.289900
     23 C17          6.1370     0.3240     6.0040 c3         1 0T6       0.107700
     24 O2           8.3170     0.2120     1.3980 os         1 0T6      -0.316900
     25 C18          9.3940     0.2770     2.3280 c3         1 0T6       0.110700
     26 H1          -0.4590    -1.0550    -0.4280 hc         1 0T6       0.058700
     27 H2          -0.5040     0.7520    -0.5700 hc         1 0T6       0.058700
     28 H3          -0.4200    -0.0270     1.0730 hc         1 0T6       0.058700
     29 H4           4.3740     2.0210    -2.2780 ha         1 0T6       0.151000
     30 H5           6.1970     2.0140    -3.9840 ha         1 0T6       0.142000
     31 H6           7.3880    -0.1130    -4.5300 ha         1 0T6       0.141000
     32 H7           6.7620    -2.2300    -3.3750 ha         1 0T6       0.152000
     33 H8           6.2910     0.0660    -0.1010 ha         1 0T6       0.173000
     34 H9           7.5840     0.2930     4.0260 ha         1 0T6       0.152000
     35 H10          6.7920    -0.5790     5.9380 h1         1 0T6       0.050367
     36 H11          5.5920     0.3450     6.9830 h1         1 0T6       0.050367
     37 H12          6.7320     1.2580     5.8640 h1         1 0T6       0.050367
     38 H13          9.3930    -0.6190     2.9960 h1         1 0T6       0.049700
     39 H14          9.3390     1.2180     2.9280 h1         1 0T6       0.049700
     40 H15         10.3000     0.2800     1.6700 h1         1 0T6       0.049700
@<TRIPOS>BOND
     1     1     2 1   
     2     1    26 1   
     3     1    27 1   
     4     1    28 1   
     5     2     3 2   
     6     2    10 1   
     7     3     4 1   
     8     3     8 1   
     9     4     5 2   
    10     5     6 1   
    11     6     7 ar  
    12     6    21 ar  
    13     7     8 1   
    14     7    18 ar  
    15     8     9 1   
    16     9    10 2   
    17     9    11 1   
    18    11    12 ar  
    19    11    16 ar  
    20    12    13 ar  
    21    12    29 1   
    22    13    14 ar  
    23    13    30 1   
    24    14    15 ar  
    25    14    31 1   
    26    15    16 ar  
    27    15    32 1   
    28    16    17 1   
    29    18    19 ar  
    30    18    33 1   
    31    19    20 ar  
    32    19    24 1   
    33    20    21 ar  
    34    20    34 1   
    35    21    22 1   
    36    22    23 1   
    37    23    35 1   
    38    23    36 1   
    39    23    37 1   
    40    24    25 1   
    41    25    38 1   
    42    25    39 1   
    43    25    40 1   
@<TRIPOS>SUBSTRUCTURE
     1 0T6         1 TEMP              0 ****  ****    0 ROOT
