@<TRIPOS>MOLECULE
0T6
   40    43     1     0     0
SMALL
bcc


@<TRIPOS>ATOM
      1 C1           0.0000     0.0000     0.0000 c3         1 0T6       0.101100
      2 C2           1.5070     0.0000     0.0000 cc         1 0T6       0.061400
      3 C3           2.3190     0.0000     1.1170 cd         1 0T6       0.019500
      4 N1           2.0770     0.0010     2.4350 nd         1 0T6      -0.203000
      5 N2           3.0230     0.0010     3.3060 nc         1 0T6      -0.266000
      6 C4           4.3210     0.0010     2.9400 ca         1 0T6       0.242600
      7 C5           4.6540    -0.0000     1.5700 ca         1 0T6      -0.180600
      8 N3           3.6210    -0.0000     0.6460 na         1 0T6       0.374000
      9 C6           3.5570    -0.0010    -0.7110 cd         1 0T6       0.188400
     10 N4           2.2880    -0.0070    -1.0770 nc         1 0T6      -0.458300
     11 C7           4.7160    -0.0010    -1.6260 ca         1 0T6      -0.090900
     12 C8           5.2680     1.2060    -2.0580 ca         1 0T6      -0.067000
     13 C9           6.3500     1.1990    -2.9130 ca         1 0T6      -0.103000
     14 C10          6.8900    -0.0010    -3.3430 ca         1 0T6      -0.079000
     15 C11          6.3490    -1.2010    -2.9180 ca         1 0T6      -0.102000
     16 C12          5.2680    -1.2100    -2.0580 ca         1 0T6      -0.018600
     17 Cl1          4.5890    -2.7170    -1.5270 cl         1 0T6      -0.006400
     18 C13          5.9800    -0.0010     1.1790 ca         1 0T6      -0.213000
     19 C14          6.9830     0.0000     2.1380 ca         1 0T6       0.233100
     20 C15          6.6650     0.0000     3.4910 ca         1 0T6      -0.333000
     21 C16          5.3460     0.0010     3.8990 ca         1 0T6       0.193800
     22 O1           5.0410     0.0020     5.2230 os         1 0T6      -0.267900
     23 C17          6.1360     0.0020     6.1410 c3         1 0T6       0.238700
     24 O2           8.2860     0.0000     1.7510 os         1 0T6      -0.298900
     25 C18          9.2700     0.0020     2.7870 c3         1 0T6       0.243700
     26 H1          -0.3610    -0.8850     0.5100 hc         1 0T6       0.014033
     27 H2          -0.3610     0.0010    -1.0210 hc         1 0T6       0.014033
     28 H3          -0.3610     0.8840     0.5120 hc         1 0T6       0.014033
     29 H4           4.8470     2.1460    -1.7230 ha         1 0T6       0.114000
     30 H5           6.7790     2.1350    -3.2490 ha         1 0T6       0.108000
     31 H6           7.7390    -0.0010    -4.0160 ha         1 0T6       0.107000
     32 H7           6.7770    -2.1370    -3.2560 ha         1 0T6       0.117000
     33 H8           6.2360    -0.0010     0.1270 ha         1 0T6       0.151000
     34 H9           7.4570     0.0010     4.2300 ha         1 0T6       0.147000
     35 H10          6.7410    -0.8820     5.9820 h1         1 0T6       0.001033
     36 H11          5.7570     0.0030     7.1550 h1         1 0T6       0.001033
     37 H12          6.7410     0.8870     5.9810 h1         1 0T6       0.001033
     38 H13          9.1480     0.8860     3.4000 h1         1 0T6       0.000700
     39 H14          9.1490    -0.8830     3.4010 h1         1 0T6       0.000700
     40 H15         10.2590     0.0020     2.3450 h1         1 0T6       0.000700
@<TRIPOS>BOND
     1     1     2 1   
     2     1    26 1   
     3     1    27 1   
     4     1    28 1   
     5     2     3 2   
     6     2    10 1   
     7     3     4 1   
     8     3     8 1   
     9     4     5 2   
    10     5     6 1   
    11     6     7 ar  
    12     6    21 ar  
    13     7     8 1   
    14     7    18 ar  
    15     8     9 1   
    16     9    10 2   
    17     9    11 1   
    18    11    12 ar  
    19    11    16 ar  
    20    12    13 ar  
    21    12    29 1   
    22    13    14 ar  
    23    13    30 1   
    24    14    15 ar  
    25    14    31 1   
    26    15    16 ar  
    27    15    32 1   
    28    16    17 1   
    29    18    19 ar  
    30    18    33 1   
    31    19    20 ar  
    32    19    24 1   
    33    20    21 ar  
    34    20    34 1   
    35    21    22 1   
    36    22    23 1   
    37    23    35 1   
    38    23    36 1   
    39    23    37 1   
    40    24    25 1   
    41    25    38 1   
    42    25    39 1   
    43    25    40 1   
@<TRIPOS>SUBSTRUCTURE
     1 0T6         1 TEMP              0 ****  ****    0 ROOT
