@<TRIPOS>MOLECULE
molecule
   40    43     1     0     0
SMALL
bcc


@<TRIPOS>ATOM
      1 C1           0.0000     0.0000     0.0000 c3         1 0T6      -0.006900
      2 C2           1.5070     0.0000     0.0000 cc         1 0T6       0.098400
      3 C3           2.3190     0.0000     1.1170 cd         1 0T6       0.225500
      4 N1           2.0770     0.0010     2.4350 nd         1 0T6      -0.262000
      5 N2           3.0230     0.0010     3.3060 nc         1 0T6      -0.263000
      6 C4           4.3210     0.0010     2.9400 ca         1 0T6       0.244600
      7 C5           4.6540    -0.0000     1.5700 ca         1 0T6       0.012400
      8 N3           3.6210    -0.0000     0.6460 na         1 0T6      -0.171000
      9 C6           3.5570    -0.0010    -0.7110 cd         1 0T6       0.414400
     10 N4           2.2880    -0.0070    -1.0770 nc         1 0T6      -0.544300
     11 C7           4.7160    -0.0010    -1.6260 ca         1 0T6      -0.095900
     12 C8           5.2680     1.2060    -2.0580 ca         1 0T6      -0.088000
     13 C9           6.3500     1.1990    -2.9130 ca         1 0T6      -0.133000
     14 C10          6.8900    -0.0010    -3.3430 ca         1 0T6      -0.104000
     15 C11          6.3490    -1.2010    -2.9180 ca         1 0T6      -0.127000
     16 C12          5.2680    -1.2100    -2.0580 ca         1 0T6       0.054400
     17 Cl1          4.5890    -2.7170    -1.5270 cl         1 0T6      -0.085400
     18 C13          5.9800    -0.0010     1.1790 ca         1 0T6      -0.225000
     19 C14          6.9830     0.0000     2.1380 ca         1 0T6       0.221100
     20 C15          6.6650     0.0000     3.4910 ca         1 0T6      -0.336000
     21 C16          5.3460     0.0010     3.8990 ca         1 0T6       0.184800
     22 O1           5.0410     0.0020     5.2230 os         1 0T6      -0.286900
     23 C17          6.1360     0.0020     6.1410 c3         1 0T6       0.122700
     24 O2           8.2860     0.0000     1.7510 os         1 0T6      -0.315900
     25 C18          9.2700     0.0020     2.7870 c3         1 0T6       0.126700
     26 H1          -0.3610    -0.8850     0.5090 hc         1 0T6       0.055033
     27 H2          -0.3610     0.8840     0.5120 hc         1 0T6       0.055033
     28 H3          -0.3610     0.0020    -1.0210 hc         1 0T6       0.055033
     29 H4           4.8470     2.1460    -1.7230 ha         1 0T6       0.149000
     30 H5           6.7790     2.1350    -3.2490 ha         1 0T6       0.140000
     31 H6           7.7390    -0.0010    -4.0160 ha         1 0T6       0.139000
     32 H7           6.7770    -2.1370    -3.2560 ha         1 0T6       0.149000
     33 H8           6.2360    -0.0010     0.1270 ha         1 0T6       0.169000
     34 H9           7.4570     0.0010     4.2300 ha         1 0T6       0.151000
     35 H10          6.7410    -0.8820     5.9820 h1         1 0T6       0.046700
     36 H11          5.7570     0.0030     7.1550 h1         1 0T6       0.046700
     37 H12          6.7410     0.8870     5.9810 h1         1 0T6       0.046700
     38 H13          9.1480     0.8860     3.4000 h1         1 0T6       0.046033
     39 H14         10.2590     0.0020     2.3450 h1         1 0T6       0.046033
     40 H15          9.1490    -0.8830     3.4010 h1         1 0T6       0.046033
@<TRIPOS>BOND
     1    25    24 1
     2    23    22 1
     3    24    19 1
     4    20    19 ar
     5    20    21 ar
     6    19    18 ar
     7    22    21 1
     8    21     6 ar
     9    18     7 ar
    10     6     7 ar
    11     6     5 1
    12     7     8 1
    13    15    14 ar
    14    15    16 ar
    15    17    16 1
    16     5     4 2
    17    14    13 ar
    18    16    11 ar
    19     8     9 1
    20     8     3 1
    21    13    12 ar
    22    11    12 ar
    23    11     9 1
    24     4     3 1
    25     9    10 2
    26     3     2 2
    27    10     2 1
    28     2     1 1
    29     1    26 1
    30     1    27 1
    31     1    28 1
    32    12    29 1
    33    13    30 1
    34    14    31 1
    35    15    32 1
    36    18    33 1
    37    20    34 1
    38    23    35 1
    39    23    36 1
    40    23    37 1
    41    25    38 1
    42    25    39 1
    43    25    40 1
@<TRIPOS>SUBSTRUCTURE
     1 0T6         1 TEMP              0 ****  ****    0 ROOT
