@<TRIPOS>MOLECULE
0T7
   54    58     1     0     0
SMALL
bcc


@<TRIPOS>ATOM
      1 C1           0.0000     0.0000     0.0000 c3         1 0T7       0.005900
      2 C2           1.5310     0.0000     0.0000 c3         1 0T7      -0.041400
      3 C3           2.0410     0.0000     1.4420 c3         1 0T7      -0.018700
      4 C4           3.5480    -0.0010     1.4410 cc         1 0T7       0.124800
      5 N1           4.3050    -1.0620     1.5700 nd         1 0T7      -0.489300
      6 C5           5.5910    -0.7100     1.5260 cd         1 0T7       0.053400
      7 C6           5.6400     0.6570     1.3600 cc         1 0T7      -0.463600
      8 N2           4.3250     1.0860     1.3030 na         1 0T7       0.553800
      9 C7           4.0730     2.4410     1.1320 ca         1 0T7      -0.328600
     10 C8           2.7740     2.9220     1.0720 ca         1 0T7      -0.076000
     11 C9           2.5450     4.2730     0.9010 ca         1 0T7      -0.196000
     12 C10          3.6120     5.1580     0.7880 ca         1 0T7       0.166100
     13 C11          4.9120     4.6940     0.8460 ca         1 0T7      -0.182300
     14 C12          5.1570     3.3290     1.0200 ca         1 0T7       0.429600
     15 N3           6.4340     2.8640     1.0780 nd         1 0T7      -0.625000
     16 C13          6.6880     1.5940     1.2450 cc         1 0T7       0.497600
     17 C14          8.1170     1.1220     1.3020 c3         1 0T7      -0.055400
     18 O1           3.3740     6.4860     0.6200 os         1 0T7      -0.305900
     19 C15          2.0070     6.8980     0.5680 c3         1 0T7       0.157100
     20 C16          1.9390     8.3910     0.3780 ca         1 0T7       0.367600
     21 C17          3.1250     9.1160     0.2800 ca         1 0T7      -0.205300
     22 C18          3.0830    10.4710     0.1020 ca         1 0T7      -0.051000
     23 C19          1.8230    11.0910     0.0240 ca         1 0T7      -0.149300
     24 C20          1.7000    12.4780    -0.1590 ca         1 0T7      -0.081000
     25 C21          0.4630    13.0410    -0.2300 ca         1 0T7      -0.097000
     26 C22         -0.6860    12.2590    -0.1240 ca         1 0T7      -0.092000
     27 C23         -0.6040    10.9120     0.0530 ca         1 0T7      -0.141300
     28 C24          0.6560    10.2940     0.1310 ca         1 0T7       0.374600
     29 N4           0.7670     8.9730     0.3050 nb         1 0T7      -0.563000
     30 C25          6.7730    -1.6380     1.6390 c3         1 0T7       0.092100
     31 H1          -0.3610     0.3150    -0.9720 hc         1 0T7       0.002700
     32 H2          -0.3610    -0.9990     0.2130 hc         1 0T7       0.002700
     33 H3          -0.3610     0.6840     0.7580 hc         1 0T7       0.002700
     34 H4           1.8920    -0.8850    -0.5110 hc         1 0T7       0.022200
     35 H5           1.8920     0.8840    -0.5110 hc         1 0T7       0.022200
     36 H6           1.6800    -0.8840     1.9530 hc         1 0T7       0.032700
     37 H7           1.6810     0.8850     1.9530 hc         1 0T7       0.032700
     38 H8           1.9390     2.2380     1.1590 ha         1 0T7       0.139000
     39 H9           1.5290     4.6450     0.8540 ha         1 0T7       0.127000
     40 H10          5.7400     5.3870     0.7570 ha         1 0T7       0.135000
     41 H11          8.2980     0.6320     2.2510 hc         1 0T7       0.022700
     42 H12          8.2990     0.4230     0.4940 hc         1 0T7       0.022700
     43 H13          8.7820     1.9710     1.2010 hc         1 0T7       0.022700
     44 H14          1.5120     6.4060    -0.2600 h1         1 0T7       0.019200
     45 H15          1.5140     6.6290     1.4950 h1         1 0T7       0.019200
     46 H16          4.0780     8.6150     0.4000 ha         1 0T7       0.132000
     47 H17          3.9940    11.0500     0.0240 ha         1 0T7       0.113000
     48 H18          2.5850    13.0970    -0.2420 ha         1 0T7       0.108000
     49 H19          0.3710    14.1110    -0.3700 ha         1 0T7       0.104000
     50 H20         -1.6600    12.7310    -0.1830 ha         1 0T7       0.104000
     51 H21         -1.5060    10.3190     0.1330 ha         1 0T7       0.117000
     52 H22          6.4230    -2.6550     1.7640 hc         1 0T7       0.012033
     53 H23          7.3740    -1.3540     2.4940 hc         1 0T7       0.012033
     54 H24          7.3720    -1.5700     0.7390 hc         1 0T7       0.012033
@<TRIPOS>BOND
     1     1     2 1   
     2     1    31 1   
     3     1    32 1   
     4     1    33 1   
     5     2     3 1   
     6     2    34 1   
     7     2    35 1   
     8     3     4 1   
     9     3    36 1   
    10     3    37 1   
    11     4     5 2   
    12     4     8 1   
    13     5     6 1   
    14     6     7 2   
    15     6    30 1   
    16     7     8 1   
    17     7    16 1   
    18     8     9 1   
    19     9    10 ar  
    20     9    14 ar  
    21    10    11 ar  
    22    10    38 1   
    23    11    12 ar  
    24    11    39 1   
    25    12    13 ar  
    26    12    18 1   
    27    13    14 ar  
    28    13    40 1   
    29    14    15 1   
    30    15    16 2   
    31    16    17 1   
    32    17    41 1   
    33    17    42 1   
    34    17    43 1   
    35    18    19 1   
    36    19    20 1   
    37    19    44 1   
    38    19    45 1   
    39    20    21 ar  
    40    20    29 ar  
    41    21    22 ar  
    42    21    46 1   
    43    22    23 ar  
    44    22    47 1   
    45    23    24 ar  
    46    23    28 ar  
    47    24    25 ar  
    48    24    48 1   
    49    25    26 ar  
    50    25    49 1   
    51    26    27 ar  
    52    26    50 1   
    53    27    28 ar  
    54    27    51 1   
    55    28    29 ar  
    56    30    52 1   
    57    30    53 1   
    58    30    54 1   
@<TRIPOS>SUBSTRUCTURE
     1 0T7         1 TEMP              0 ****  ****    0 ROOT
