@<TRIPOS>MOLECULE
molecule
   54    58     1     0     0
SMALL
bcc


@<TRIPOS>ATOM
      1 C1           0.0000     0.0000     0.0000 c3         1 0T7      -0.094100
      2 C2           1.5310     0.0000     0.0000 c3         1 0T7      -0.090400
      3 C3           2.0410     0.0000     1.4420 c3         1 0T7      -0.081700
      4 C4           3.5480    -0.0010     1.4410 cc         1 0T7       0.374800
      5 N1           4.3050    -1.0620     1.5700 nd         1 0T7      -0.581300
      6 C5           5.5910    -0.7100     1.5260 cd         1 0T7       0.084400
      7 C6           5.6400     0.6570     1.3600 cc         1 0T7      -0.269600
      8 N2           4.3250     1.0860     1.3030 na         1 0T7      -0.021200
      9 C7           4.0730     2.4410     1.1320 ca         1 0T7      -0.124600
     10 C8           2.7740     2.9220     1.0720 ca         1 0T7      -0.108000
     11 C9           2.5450     4.2730     0.9010 ca         1 0T7      -0.204000
     12 C10          3.6120     5.1580     0.7880 ca         1 0T7       0.144100
     13 C11          4.9120     4.6940     0.8460 ca         1 0T7      -0.188300
     14 C12          5.1570     3.3290     1.0200 ca         1 0T7       0.440600
     15 N3           6.4340     2.8640     1.0780 nc         1 0T7      -0.708000
     16 C13          6.6880     1.5940     1.2450 cd         1 0T7       0.517600
     17 C14          8.1170     1.1220     1.3020 c3         1 0T7      -0.143400
     18 O1           3.3740     6.4860     0.6200 os         1 0T7      -0.330900
     19 C15          2.0070     6.8980     0.5680 c3         1 0T7       0.091100
     20 C16          1.9390     8.3910     0.3780 ca         1 0T7       0.434600
     21 C17          3.1250     9.1160     0.2800 ca         1 0T7      -0.232300
     22 C18          3.0830    10.4710     0.1020 ca         1 0T7      -0.079000
     23 C19          1.8230    11.0910     0.0240 ca         1 0T7      -0.153300
     24 C20          1.7000    12.4780    -0.1590 ca         1 0T7      -0.110000
     25 C21          0.4630    13.0410    -0.2300 ca         1 0T7      -0.125000
     26 C22         -0.6860    12.2590    -0.1240 ca         1 0T7      -0.118000
     27 C23         -0.6040    10.9120     0.0530 ca         1 0T7      -0.164300
     28 C24          0.6560    10.2940     0.1310 ca         1 0T7       0.424600
     29 N4           0.7670     8.9730     0.3050 nb         1 0T7      -0.687000
     30 C25          6.7730    -1.6380     1.6390 c3         1 0T7      -0.010900
     31 H1          -0.3610     0.6750     0.7670 hc         1 0T7       0.036367
     32 H2          -0.3610     0.3270    -0.9680 hc         1 0T7       0.036367
     33 H3          -0.3610    -1.0010     0.2010 hc         1 0T7       0.036367
     34 H4           1.8920     0.8840    -0.5110 hc         1 0T7       0.052700
     35 H5           1.8920    -0.8850    -0.5110 hc         1 0T7       0.052700
     36 H6           1.6810     0.8850     1.9530 hc         1 0T7       0.066700
     37 H7           1.6800    -0.8840     1.9530 hc         1 0T7       0.066700
     38 H8           1.9390     2.2380     1.1590 ha         1 0T7       0.154000
     39 H9           1.5290     4.6450     0.8540 ha         1 0T7       0.145000
     40 H10          5.7400     5.3870     0.7570 ha         1 0T7       0.167000
     41 H11          8.7820     1.9680     1.1820 hc         1 0T7       0.060367
     42 H12          8.3040     0.6490     2.2580 hc         1 0T7       0.060367
     43 H13          8.2940     0.4080     0.5060 hc         1 0T7       0.060367
     44 H14          1.5140     6.6290     1.4950 h1         1 0T7       0.060700
     45 H15          1.5120     6.4060    -0.2600 h1         1 0T7       0.060700
     46 H16          4.0780     8.6130     0.3890 ha         1 0T7       0.158000
     47 H17          3.9940    11.0500     0.0240 ha         1 0T7       0.143000
     48 H18          2.5850    13.0970    -0.2420 ha         1 0T7       0.134000
     49 H19          0.3710    14.1110    -0.3700 ha         1 0T7       0.132000
     50 H20         -1.6600    12.7310    -0.1830 ha         1 0T7       0.134000
     51 H21         -1.5060    10.3190     0.1330 ha         1 0T7       0.148000
     52 H22          7.3810    -1.5580     0.7460 hc         1 0T7       0.050367
     53 H23          6.4230    -2.6570     1.7470 hc         1 0T7       0.050367
     54 H24          7.3650    -1.3650     2.5040 hc         1 0T7       0.050367
@<TRIPOS>BOND
     1    24    25 ar
     2    24    23 ar
     3    22    23 ar
     4    22    21 ar
     5    25    26 ar
     6    23    28 ar
     7    21    20 ar
     8    26    27 ar
     9    28    27 ar
    10    28    29 ar
    11    20    29 ar
    12    20    19 1
    13    18    19 1
    14    18    12 1
    15    11    12 ar
    16    11    10 ar
    17    12    13 ar
    18    10     9 ar
    19     2     3 1
    20     2     1 1
    21    13    14 ar
    22     3     4 1
    23     9    14 ar
    24     9     8 1
    25    14    15 1
    26     8     4 1
    27     8     7 1
    28     4     5 2
    29    15    16 2
    30     5     6 1
    31     7    16 1
    32     7     6 2
    33    16    17 1
    34     6    30 1
    35     1    31 1
    36     1    32 1
    37     1    33 1
    38     2    34 1
    39     2    35 1
    40     3    36 1
    41     3    37 1
    42    10    38 1
    43    11    39 1
    44    13    40 1
    45    17    41 1
    46    17    42 1
    47    17    43 1
    48    19    44 1
    49    19    45 1
    50    21    46 1
    51    22    47 1
    52    24    48 1
    53    25    49 1
    54    26    50 1
    55    27    51 1
    56    30    52 1
    57    30    53 1
    58    30    54 1
@<TRIPOS>SUBSTRUCTURE
     1 0T7         1 TEMP              0 ****  ****    0 ROOT
