@<TRIPOS>MOLECULE
0T7
   54    58     1     0     0
SMALL
bcc


@<TRIPOS>ATOM
      1 C1           0.6770     1.0020     0.2510 c3         1 0T7      -0.095100
      2 C2           1.8790     0.0920     0.2540 c3         1 0T7      -0.081400
      3 C3           2.2530    -0.3570     1.6550 c3         1 0T7      -0.088700
      4 C4           1.3830    -1.4650     2.1510 cc         1 0T7       0.378800
      5 N1           0.3570    -1.2680     3.0270 nd         1 0T7      -0.565300
      6 C5          -0.2140    -2.5050     3.2870 cd         1 0T7       0.071400
      7 C6           0.4740    -3.5040     2.5530 cc         1 0T7      -0.243600
      8 N2           1.4930    -2.8270     1.8190 na         1 0T7      -0.055200
      9 C7           2.3500    -3.5680     0.9930 ca         1 0T7      -0.093600
     10 C8           3.3600    -2.9870     0.1940 ca         1 0T7      -0.118000
     11 C9           4.1910    -3.7680    -0.5840 ca         1 0T7      -0.136000
     12 C10          4.0270    -5.1700    -0.5950 ca         1 0T7       0.115100
     13 C11          3.0310    -5.7800     0.1540 ca         1 0T7      -0.221300
     14 C12          2.1720    -4.9950     0.9610 ca         1 0T7       0.408600
     15 N3           1.1750    -5.6560     1.6890 nd         1 0T7      -0.677000
     16 C13          0.3620    -4.9470     2.4380 cc         1 0T7       0.503600
     17 C14         -0.7290    -5.6090     3.2160 c3         1 0T7      -0.155400
     18 O1           4.9150    -5.8370    -1.4220 os         1 0T7      -0.327900
     19 C15          4.9860    -7.2560    -1.2940 c3         1 0T7       0.073100
     20 C16          3.9330    -7.9480    -2.1310 ca         1 0T7       0.382600
     21 C17          3.5930    -7.3590    -3.3950 ca         1 0T7      -0.229300
     22 C18          2.6780    -7.9910    -4.1960 ca         1 0T7      -0.082000
     23 C19          2.0930    -9.2140    -3.7610 ca         1 0T7      -0.142300
     24 C20          1.1440    -9.9190    -4.5440 ca         1 0T7      -0.112000
     25 C21          0.6030   -11.0950    -4.0870 ca         1 0T7      -0.124000
     26 C22          0.9870   -11.6160    -2.8280 ca         1 0T7      -0.124000
     27 C23          1.9030   -10.9630    -2.0430 ca         1 0T7      -0.162300
     28 C24          2.4890    -9.7330    -2.4890 ca         1 0T7       0.397600
     29 N4           3.4080    -9.0850    -1.6880 nb         1 0T7      -0.655000
     30 C25         -1.3540    -2.6960     4.2030 c3         1 0T7      -0.023900
     31 H1          -0.1990     0.4980     0.7280 hc         1 0T7       0.040367
     32 H2           0.4040     1.2740    -0.7970 hc         1 0T7       0.040367
     33 H3           0.8910     1.9410     0.8160 hc         1 0T7       0.040367
     34 H4           1.6730    -0.8010    -0.3950 hc         1 0T7       0.043700
     35 H5           2.7560     0.6320    -0.1910 hc         1 0T7       0.043700
     36 H6           3.3270    -0.6790     1.6950 hc         1 0T7       0.067700
     37 H7           2.1520     0.5150     2.3600 hc         1 0T7       0.067700
     38 H8           3.5000    -1.8950     0.1670 ha         1 0T7       0.149000
     39 H9           4.9800    -3.3130    -1.2010 ha         1 0T7       0.154000
     40 H10          2.8860    -6.8720     0.1240 ha         1 0T7       0.174000
     41 H11         -1.7170    -5.3100     2.7840 hc         1 0T7       0.062367
     42 H12         -0.6820    -5.2730     4.2820 hc         1 0T7       0.062367
     43 H13         -0.6480    -6.7230     3.1860 hc         1 0T7       0.062367
     44 H14          4.9480    -7.5640    -0.2170 h1         1 0T7       0.082200
     45 H15          6.0000    -7.4940    -1.7250 h1         1 0T7       0.082200
     46 H16          4.0690    -6.4100    -3.6820 ha         1 0T7       0.157000
     47 H17          2.3850    -7.5740    -5.1710 ha         1 0T7       0.141000
     48 H18          0.8530    -9.5040    -5.5200 ha         1 0T7       0.135000
     49 H19         -0.1350   -11.6460    -4.6900 ha         1 0T7       0.135000
     50 H20          0.5370   -12.5600    -2.4850 ha         1 0T7       0.136000
     51 H21          2.1990   -11.3690    -1.0630 ha         1 0T7       0.151000
     52 H22         -2.1350    -3.3320     3.7170 hc         1 0T7       0.051367
     53 H23         -1.8170    -1.7180     4.4870 hc         1 0T7       0.051367
     54 H24         -1.0080    -3.2060     5.1380 hc         1 0T7       0.051367
@<TRIPOS>BOND
     1     1     2 1   
     2     1    31 1   
     3     1    32 1   
     4     1    33 1   
     5     2     3 1   
     6     2    34 1   
     7     2    35 1   
     8     3     4 1   
     9     3    36 1   
    10     3    37 1   
    11     4     5 2   
    12     4     8 1   
    13     5     6 1   
    14     6     7 2   
    15     6    30 1   
    16     7     8 1   
    17     7    16 1   
    18     8     9 1   
    19     9    10 ar  
    20     9    14 ar  
    21    10    11 ar  
    22    10    38 1   
    23    11    12 ar  
    24    11    39 1   
    25    12    13 ar  
    26    12    18 1   
    27    13    14 ar  
    28    13    40 1   
    29    14    15 1   
    30    15    16 2   
    31    16    17 1   
    32    17    41 1   
    33    17    42 1   
    34    17    43 1   
    35    18    19 1   
    36    19    20 1   
    37    19    44 1   
    38    19    45 1   
    39    20    21 ar  
    40    20    29 ar  
    41    21    22 ar  
    42    21    46 1   
    43    22    23 ar  
    44    22    47 1   
    45    23    24 ar  
    46    23    28 ar  
    47    24    25 ar  
    48    24    48 1   
    49    25    26 ar  
    50    25    49 1   
    51    26    27 ar  
    52    26    50 1   
    53    27    28 ar  
    54    27    51 1   
    55    28    29 ar  
    56    30    52 1   
    57    30    53 1   
    58    30    54 1   
@<TRIPOS>SUBSTRUCTURE
     1 0T7         1 TEMP              0 ****  ****    0 ROOT
