@<TRIPOS>MOLECULE
molecule
   66    69     1     0     0
SMALL
bcc


@<TRIPOS>ATOM
      1 N1           0.0000     0.0000     0.0000 nb         1 0T8      -0.882000
      2 N3           2.0290     0.0000     1.1260 nb         1 0T8      -0.847000
      3 C4          -0.6730     0.0050     3.6490 c          1 0T8       0.710700
      4 C5           1.3250     0.0000     0.0000 ca         1 0T8       0.995900
      5 C6          -2.7860    -0.1160    -0.1310 c3         1 0T8       0.232500
      6 C7          -4.1860    -0.7040     0.1190 c3         1 0T8      -0.096900
      7 C8          -3.0000     1.2800    -0.7520 c3         1 0T8      -0.096900
      8 C10          3.4590    -0.0030    -1.2310 c3         1 0T8       0.250800
      9 C13          0.3320    -0.2520     7.2200 c3         1 0T8      -0.126400
     10 C15         -0.4020    -0.2500     8.5620 c3         1 0T8       0.129000
     11 C20          1.1690     0.6460    10.2660 c          1 0T8       0.702500
     12 C21          1.0050    -1.6700    10.2150 c3         1 0T8       0.096000
     13 C22          7.5430     1.1430    -2.7470 ca         1 0T8       0.421700
     14 C24          2.1150     0.1390    11.3310 c3         1 0T8      -0.169400
     15 C26          2.3060    -1.3570    10.9890 c3         1 0T8      -0.098400
     16 O25          0.9810     1.8150    10.0020 o          1 0T8      -0.628500
     17 N6           0.5700    -0.3880     9.6500 n          1 0T8      -0.500800
     18 C9          -0.6810    -0.1090     6.0830 c3         1 0T8       0.114000
     19 N4           0.0230    -0.1110     4.7980 ns         1 0T8      -0.582900
     20 O1          -1.8840     0.1100     3.6790 o          1 0T8      -0.649100
     21 C2           0.0340     0.0030     2.3580 ca         1 0T8      -0.539200
     22 C1          -0.6800     0.0020     1.1400 ca         1 0T8       0.811200
     23 N2          -2.0580     0.0030     1.1350 nu         1 0T8      -0.881900
     24 C12         -4.4100     1.2030    -1.3860 c3         1 0T8      -0.085900
     25 C11         -5.2010     0.3560    -0.3580 c3         1 0T8      -0.085900
     26 C3           1.4320     0.0010     2.3040 ca         1 0T8       0.554200
     27 N5           1.9940    -0.0020    -1.2060 nu         1 0T8      -0.894900
     28 C14          3.9440    -0.0050    -2.6820 c3         1 0T8      -0.059100
     29 C16          5.4510    -0.0060    -2.7080 ca         1 0T8      -0.048300
     30 C19          6.1590    -1.1980    -2.7200 ca         1 0T8      -0.249300
     31 C23          7.5400    -1.1600    -2.7430 ca         1 0T8       0.421700
     32 N7           8.1840    -0.0080    -2.7570 nb         1 0T8      -0.690000
     33 C18          6.1610     1.1840    -2.7230 ca         1 0T8      -0.249300
     34 H6          -2.2400    -0.7470    -0.8220 h1         1 0T8       0.075700
     35 H7          -4.3230    -0.8960     1.1770 hc         1 0T8       0.053200
     36 H7A         -4.3110    -1.6180    -0.4490 hc         1 0T8       0.053200
     37 H8          -2.9730     2.0430     0.0170 hc         1 0T8       0.053200
     38 H8A         -2.2540     1.4720    -1.5130 hc         1 0T8       0.053200
     39 H10          3.8300     0.8810    -0.7280 h1         1 0T8       0.058200
     40 H10A         3.8290    -0.8880    -0.7260 h1         1 0T8       0.058200
     41 H13          0.8740    -1.1830     7.1060 hc         1 0T8       0.054700
     42 H13A         1.0290     0.5770     7.1880 hc         1 0T8       0.054700
     43 H15         -1.0990    -1.0790     8.5930 h1         1 0T8       0.061200
     44 H15A        -0.9430     0.6810     8.6760 h1         1 0T8       0.061200
     45 H21A         0.2520    -2.0560    10.8900 h1         1 0T8       0.046200
     46 H22          8.1050     2.0690    -2.7580 h4         1 0T8       0.024100
     47 H24          1.6710     0.2480    12.3140 hc         1 0T8       0.077700
     48 H24A         3.0620     0.6620    11.2760 hc         1 0T8       0.077700
     49 H26          2.3700    -1.9540    11.8910 hc         1 0T8       0.059200
     50 H26A         3.1740    -1.5010    10.3580 hc         1 0T8       0.059200
     51 H9          -1.3780    -0.9390     6.1140 h1         1 0T8       0.054200
     52 H9A         -1.2230     0.8220     6.1970 h1         1 0T8       0.054200
     53 HN4          1.0160    -0.2330     4.7710 hn         1 0T8       0.315500
     54 HN2         -2.5620     0.1010     1.9940 hn         1 0T8       0.494800
     55 H12         -4.8420     2.1920    -1.4790 hc         1 0T8       0.045450
     56 H12A        -4.3710     0.7010    -2.3450 hc         1 0T8       0.045450
     57 H11         -5.5220     0.9730     0.4730 hc         1 0T8       0.045450
     58 H11A        -6.0490    -0.1210    -0.8350 hc         1 0T8       0.045450
     59 H3           2.0170     0.0010     3.2150 h4         1 0T8       0.018100
     60 HN5          1.4780    -0.0150    -2.0630 hn         1 0T8       0.456800
     61 H14          3.5740     0.8790    -3.1870 hc         1 0T8       0.057200
     62 H14A         3.5730    -0.8900    -3.1850 hc         1 0T8       0.057200
     63 H19          5.6370    -2.1470    -2.7090 ha         1 0T8       0.140000
     64 H23          8.1010    -2.0860    -2.7530 h4         1 0T8       0.024100
     65 H18          5.6410     2.1340    -2.7140 ha         1 0T8       0.140000
     66 H21          1.2050    -2.3790     9.4200 h1         1 0T8       0.046200
@<TRIPOS>BOND
     1     1     4 ar
     2     1    22 ar
     3     2     4 ar
     4     2    26 ar
     5     3    19 1
     6     3    20 2
     7     3    21 1
     8     4    27 1
     9     5     6 1
    10     5     7 1
    11     5    23 1
    12     6    25 1
    13     7    24 1
    14     8    27 1
    15     8    28 1
    16     9    10 1
    17     9    18 1
    18    10    17 1
    19    11    14 1
    20    11    16 2
    21    11    17 1
    22    12    15 1
    23    12    17 1
    24    13    32 ar
    25    13    33 ar
    26    14    15 1
    27    18    19 1
    28    21    22 ar
    29    21    26 ar
    30    22    23 1
    31    24    25 1
    32    28    29 1
    33    29    30 ar
    34    29    33 ar
    35    30    31 ar
    36    31    32 ar
    37     5    34 1
    38     6    35 1
    39     6    36 1
    40     7    37 1
    41     7    38 1
    42     8    39 1
    43     8    40 1
    44     9    41 1
    45     9    42 1
    46    10    43 1
    47    10    44 1
    48    12    66 1
    49    12    45 1
    50    13    46 1
    51    14    47 1
    52    14    48 1
    53    15    49 1
    54    15    50 1
    55    18    51 1
    56    18    52 1
    57    19    53 1
    58    23    54 1
    59    24    55 1
    60    24    56 1
    61    25    57 1
    62    25    58 1
    63    26    59 1
    64    27    60 1
    65    28    61 1
    66    28    62 1
    67    30    63 1
    68    31    64 1
    69    33    65 1
@<TRIPOS>SUBSTRUCTURE
     1 0T8         1 TEMP              0 ****  ****    0 ROOT
