@<TRIPOS>MOLECULE
0T8
   67    70     1     0     0
SMALL
bcc


@<TRIPOS>ATOM
      1 N1          -1.0140     0.8930     0.1500 nb         1 0T8      -0.843000
      2 N3           0.3870     2.1020     1.7910 nb         1 0T8      -0.749000
      3 C4          -2.7000     0.9180     3.5220 c          1 0T8       0.599700
      4 C5           0.0960     1.6360     0.4740 ca         1 0T8       0.963900
      5 C6          -3.2480    -0.7140    -0.4990 c3         1 0T8       0.218500
      6 C7          -4.3150    -1.8320    -0.4670 c3         1 0T8      -0.094400
      7 C8          -3.8050     0.3300    -1.4920 c3         1 0T8      -0.094400
      8 C10          0.8810     1.5560    -1.8810 c3         1 0T8       0.211800
      9 C13         -3.3080     2.2040     7.1350 c3         1 0T8      -0.130400
     10 C15         -2.1050     1.7160     7.9570 c3         1 0T8       0.102000
     11 C20         -0.1220     3.0270     7.1460 c          1 0T8       0.724500
     12 C21         -0.7280     3.2520     9.4100 c3         1 0T8       0.085000
     13 C22          1.8770    -0.7780    -5.7800 ca         1 0T8       0.402200
     14 C24          0.9340     3.9420     7.7430 c3         1 0T8      -0.149400
     15 C26          0.5480     4.1000     9.2130 c3         1 0T8      -0.097400
     16 O25         -0.1860     2.6530     5.9550 o          1 0T8      -0.735500
     17 N6          -1.0430     2.6630     8.1150 n          1 0T8      -0.486800
     18 C9          -3.5220     1.4140     5.8530 c3         1 0T8       0.114800
     19 N4          -2.4310     1.5990     4.8580 ny         1 0T8      -0.670800
     20 O1          -3.7520     0.2700     3.5050 o          1 0T8      -0.537100
     21 C2          -1.7330     1.1280     2.4990 ca         1 0T8      -0.591200
     22 C1          -1.9250     0.6100     1.1420 ca         1 0T8       0.817200
     23 N2          -2.9850    -0.1840     0.8310 nu         1 0T8      -0.818900
     24 C12         -5.3090     0.1180    -1.5770 c3         1 0T8      -0.085900
     25 C11         -5.6320    -1.1980    -0.8820 c3         1 0T8      -0.085900
     26 C3          -0.5070     1.8430     2.7130 ca         1 0T8       0.529200
     27 N5           0.9840     1.9920    -0.5100 nu         1 0T8      -0.810900
     28 C14          1.3530     0.1190    -2.1350 c3         1 0T8      -0.063100
     29 C16          1.1070    -0.2510    -3.5540 ca         1 0T8      -0.054300
     30 C19         -0.1980    -0.4680    -4.0180 ca         1 0T8      -0.245800
     31 C23         -0.3830    -0.8320    -5.3620 ca         1 0T8       0.402200
     32 N7           0.6290    -0.9870    -6.2380 nb         1 0T8      -0.651000
     33 C18          2.1680    -0.4100    -4.4530 ca         1 0T8      -0.245800
     34 H6          -2.2780    -1.1320    -0.8970 h1         1 0T8       0.082700
     35 H7          -4.3970    -2.3310     0.5300 hc         1 0T8       0.060700
     36 H7A         -4.0090    -2.6160    -1.2060 hc         1 0T8       0.060700
     37 H8          -3.5590     1.3780    -1.1930 hc         1 0T8       0.060700
     38 H8A         -3.3270     0.1490    -2.4890 hc         1 0T8       0.060700
     39 H10         -0.1880     1.6560    -2.2290 h1         1 0T8       0.078200
     40 H10A         1.5140     2.2640    -2.4920 h1         1 0T8       0.078200
     41 H13         -3.2330     3.3010     6.9090 hc         1 0T8       0.087200
     42 H13A        -4.2390     2.0640     7.7500 hc         1 0T8       0.087200
     43 H15         -1.6850     0.7790     7.4850 h1         1 0T8       0.063700
     44 H15A        -2.4730     1.4350     8.9870 h1         1 0T8       0.063700
     45 H22          2.6890    -0.9150    -6.5180 h4         1 0T8       0.029600
     46 H24          1.9420     3.4720     7.6190 hc         1 0T8       0.097700
     47 H24A         0.9320     4.9190     7.1980 hc         1 0T8       0.097700
     48 H26          0.3450     5.1690     9.4640 hc         1 0T8       0.075700
     49 H26A         1.3630     3.7350     9.8850 hc         1 0T8       0.075700
     50 H9          -3.5980     0.3100     6.0740 hx         1 0T8       0.108700
     51 H9A         -4.4900     1.7340     5.3680 hx         1 0T8       0.108700
     52 HN4         -2.2770     2.6020     4.6980 hn         1 0T8       0.466300
     53 HN2         -3.7020    -0.3230     1.5130 hn         1 0T8       0.466800
     54 H12         -5.6390     0.0920    -2.6470 hc         1 0T8       0.052700
     55 H12A        -5.8540     0.9620    -1.0850 hc         1 0T8       0.052700
     56 H11         -6.1990    -1.8820    -1.5630 hc         1 0T8       0.052700
     57 H11A        -6.2770    -1.0160     0.0140 hc         1 0T8       0.052700
     58 H3          -0.2200     2.2230     3.7190 h4         1 0T8       0.048100
     59 HN5          1.8320     2.4390    -0.2310 hn         1 0T8       0.466800
     60 H14          0.7950    -0.5920    -1.4680 hc         1 0T8       0.064700
     61 H14A         2.4450     0.0270    -1.8920 hc         1 0T8       0.064700
     62 H19         -1.0590    -0.3610    -3.3440 ha         1 0T8       0.142500
     63 H23         -1.3970    -1.0120    -5.7650 h4         1 0T8       0.029600
     64 H18          3.2080    -0.2570    -4.1370 ha         1 0T8       0.142500
     65 H21         -1.5870     3.8900     9.7540 h1         1 0T8       0.062200
     66 H42         -1.5480     1.2320     5.2500 hn         1 0T8       0.466300
     67 H21A        -0.5590     2.4410    10.1700 h1         1 0T8       0.062200
@<TRIPOS>BOND
     1     1     4 ar  
     2     1    22 ar  
     3     2     4 ar  
     4     2    26 ar  
     5     3    19 1   
     6     3    20 2   
     7     3    21 1   
     8     4    27 1   
     9     5     6 1   
    10     5     7 1   
    11     5    23 1   
    12     5    34 1   
    13     6    25 1   
    14     6    35 1   
    15     6    36 1   
    16     7    24 1   
    17     7    37 1   
    18     7    38 1   
    19     8    27 1   
    20     8    28 1   
    21     8    39 1   
    22     8    40 1   
    23     9    10 1   
    24     9    18 1   
    25     9    41 1   
    26     9    42 1   
    27    10    17 1   
    28    10    43 1   
    29    10    44 1   
    30    11    14 1   
    31    11    16 2   
    32    11    17 1   
    33    12    15 1   
    34    12    17 1   
    35    12    65 1   
    36    12    67 1   
    37    13    32 ar  
    38    13    33 ar  
    39    13    45 1   
    40    14    15 1   
    41    14    46 1   
    42    14    47 1   
    43    15    48 1   
    44    15    49 1   
    45    18    19 1   
    46    18    50 1   
    47    18    51 1   
    48    19    52 1   
    49    19    66 1   
    50    21    22 ar  
    51    21    26 ar  
    52    22    23 1   
    53    23    53 1   
    54    24    25 1   
    55    24    54 1   
    56    24    55 1   
    57    25    56 1   
    58    25    57 1   
    59    26    58 1   
    60    27    59 1   
    61    28    29 1   
    62    28    60 1   
    63    28    61 1   
    64    29    30 ar  
    65    29    33 ar  
    66    30    31 ar  
    67    30    62 1   
    68    31    32 ar  
    69    31    63 1   
    70    33    64 1   
@<TRIPOS>SUBSTRUCTURE
     1 0T8         1 TEMP              0 ****  ****    0 ROOT
