@<TRIPOS>MOLECULE
0T8
   66    69     1     0     0
SMALL
bcc


@<TRIPOS>ATOM
      1 N1           0.0000     0.0000     0.0000 nb         1 0T8      -0.792000
      2 N3           2.0290     0.0000     1.1260 nb         1 0T8      -0.764000
      3 C4          -0.6730     0.0050     3.6490 c          1 0T8       0.646700
      4 C5           1.3250     0.0000     0.0000 ca         1 0T8       0.780900
      5 C6          -2.7860    -0.1160    -0.1310 c3         1 0T8       0.127500
      6 C7          -4.1860    -0.7040     0.1190 c3         1 0T8      -0.038900
      7 C8          -3.0000     1.2800    -0.7520 c3         1 0T8      -0.038900
      8 C10          3.4590    -0.0030    -1.2310 c3         1 0T8       0.166800
      9 C13          0.3320    -0.2520     7.2200 c3         1 0T8      -0.069400
     10 C15         -0.4020    -0.2500     8.5620 c3         1 0T8       0.083000
     11 C20          1.1690     0.6460    10.2660 c          1 0T8       0.634500
     12 C21          1.0050    -1.6700    10.2150 c3         1 0T8       0.053000
     13 C22          7.5430     1.1430    -2.7470 ca         1 0T8       0.407700
     14 C24          2.1150     0.1390    11.3310 c3         1 0T8      -0.112400
     15 C26          2.3060    -1.3570    10.9890 c3         1 0T8      -0.032400
     16 O25          0.9810     1.8150    10.0020 o          1 0T8      -0.667500
     17 N6           0.5700    -0.3880     9.6500 n          1 0T8      -0.175800
     18 C9          -0.6810    -0.1090     6.0830 c3         1 0T8       0.055000
     19 N4           0.0230    -0.1110     4.7980 ns         1 0T8      -0.196900
     20 O1          -1.8840     0.1100     3.6790 o          1 0T8      -0.692100
     21 C2           0.0340     0.0030     2.3580 ca         1 0T8      -0.568200
     22 C1          -0.6800     0.0020     1.1400 ca         1 0T8       0.644200
     23 N2          -2.0580     0.0030     1.1350 nu         1 0T8      -0.492900
     24 C12         -4.4100     1.2030    -1.3860 c3         1 0T8      -0.023900
     25 C11         -5.2010     0.3560    -0.3580 c3         1 0T8      -0.023900
     26 C3           1.4320     0.0010     2.3040 ca         1 0T8       0.556200
     27 N5           1.9940    -0.0020    -1.2060 nu         1 0T8      -0.479900
     28 C14          3.9440    -0.0050    -2.6820 c3         1 0T8       0.016900
     29 C16          5.4510    -0.0060    -2.7080 ca         1 0T8      -0.057300
     30 C19          6.1590    -1.1980    -2.7200 ca         1 0T8      -0.217300
     31 C23          7.5400    -1.1600    -2.7430 ca         1 0T8       0.407700
     32 N7           8.1840    -0.0080    -2.7570 nb         1 0T8      -0.584000
     33 C18          6.1610     1.1840    -2.7230 ca         1 0T8      -0.217300
     34 H6          -2.2400    -0.7470    -0.8220 h1         1 0T8       0.050700
     35 H7          -4.3230    -0.8960     1.1770 hc         1 0T8       0.023200
     36 H7A         -4.3110    -1.6180    -0.4490 hc         1 0T8       0.023200
     37 H8          -2.9730     2.0430     0.0170 hc         1 0T8       0.023200
     38 H8A         -2.2540     1.4720    -1.5130 hc         1 0T8       0.023200
     39 H10          3.8300     0.8810    -0.7280 h1         1 0T8       0.029700
     40 H10A         3.8290    -0.8880    -0.7260 h1         1 0T8       0.029700
     41 H13          0.8740    -1.1830     7.1060 hc         1 0T8       0.025700
     42 H13A         1.0290     0.5770     7.1880 hc         1 0T8       0.025700
     43 H15         -1.0990    -1.0790     8.5930 h1         1 0T8       0.031700
     44 H15A        -0.9430     0.6810     8.6760 h1         1 0T8       0.031700
     45 H21A         0.2520    -2.0560    10.8900 h1         1 0T8       0.016200
     46 H22          8.1050     2.0690    -2.7580 h4         1 0T8      -0.019900
     47 H24          1.6710     0.2480    12.3140 hc         1 0T8       0.043700
     48 H24A         3.0620     0.6620    11.2760 hc         1 0T8       0.043700
     49 H26          2.3700    -1.9540    11.8910 hc         1 0T8       0.026700
     50 H26A         3.1740    -1.5010    10.3580 hc         1 0T8       0.026700
     51 H9          -1.3780    -0.9390     6.1140 h1         1 0T8       0.027700
     52 H9A         -1.2230     0.8220     6.1970 h1         1 0T8       0.027700
     53 HN4          1.0160    -0.2330     4.7710 hn         1 0T8       0.180500
     54 HN2         -2.5620     0.1010     1.9940 hn         1 0T8       0.363800
     55 H12         -4.8420     2.1920    -1.4790 hc         1 0T8       0.015700
     56 H12A        -4.3710     0.7010    -2.3450 hc         1 0T8       0.015700
     57 H11         -5.5220     0.9730     0.4730 hc         1 0T8       0.015700
     58 H11A        -6.0490    -0.1210    -0.8350 hc         1 0T8       0.015700
     59 H3           2.0170     0.0010     3.2150 h4         1 0T8      -0.029900
     60 HN5          1.4780    -0.0150    -2.0630 hn         1 0T8       0.300800
     61 H14          3.5740     0.8790    -3.1870 hc         1 0T8       0.024200
     62 H14A         3.5730    -0.8900    -3.1850 hc         1 0T8       0.024200
     63 H19          5.6370    -2.1470    -2.7090 ha         1 0T8       0.116500
     64 H23          8.1010    -2.0860    -2.7530 h4         1 0T8      -0.019900
     65 H18          5.6410     2.1340    -2.7140 ha         1 0T8       0.116500
     66 H21          1.2050    -2.3790     9.4200 h1         1 0T8       0.016200
@<TRIPOS>BOND
     1     1     4 ar  
     2     1    22 ar  
     3     2     4 ar  
     4     2    26 ar  
     5     3    19 1   
     6     3    20 2   
     7     3    21 1   
     8     4    27 1   
     9     5     6 1   
    10     5     7 1   
    11     5    23 1   
    12     5    34 1   
    13     6    25 1   
    14     6    35 1   
    15     6    36 1   
    16     7    24 1   
    17     7    37 1   
    18     7    38 1   
    19     8    27 1   
    20     8    28 1   
    21     8    39 1   
    22     8    40 1   
    23     9    10 1   
    24     9    18 1   
    25     9    41 1   
    26     9    42 1   
    27    10    17 1   
    28    10    43 1   
    29    10    44 1   
    30    11    14 1   
    31    11    16 2   
    32    11    17 1   
    33    12    15 1   
    34    12    17 1   
    35    12    45 1   
    36    12    66 1   
    37    13    32 ar  
    38    13    33 ar  
    39    13    46 1   
    40    14    15 1   
    41    14    47 1   
    42    14    48 1   
    43    15    49 1   
    44    15    50 1   
    45    18    19 1   
    46    18    51 1   
    47    18    52 1   
    48    19    53 1   
    49    21    22 ar  
    50    21    26 ar  
    51    22    23 1   
    52    23    54 1   
    53    24    25 1   
    54    24    55 1   
    55    24    56 1   
    56    25    57 1   
    57    25    58 1   
    58    26    59 1   
    59    27    60 1   
    60    28    29 1   
    61    28    61 1   
    62    28    62 1   
    63    29    30 ar  
    64    29    33 ar  
    65    30    31 ar  
    66    30    63 1   
    67    31    32 ar  
    68    31    64 1   
    69    33    65 1   
@<TRIPOS>SUBSTRUCTURE
     1 0T8         1 TEMP              0 ****  ****    0 ROOT
