@<TRIPOS>MOLECULE
0T9
   75    78     1     0     0
SMALL
bcc


@<TRIPOS>ATOM
      1 C2           0.0000     0.0000     0.0000 c3         1 0T9      -0.050400
      2 C4           1.4250    -1.1470     2.1890 c2         1 0T9      -0.123400
      3 C5           2.0390     0.0000     1.4430 c3         1 0T9       0.002200
      4 C6           1.5290     0.0000     0.0000 c3         1 0T9      -0.016400
      5 C8           3.5580    -0.0170     1.4580 c3         1 0T9      -0.033700
      6 C16          5.2690     1.8680     3.6310 c3         1 0T9      -0.045100
      7 C14          6.0120     1.0060     2.6070 c3         1 0T9      -0.065000
      8 C13          5.6270     1.4280     1.2030 c3         1 0T9      -0.013400
      9 C12          4.0940     1.3710     1.1200 c3         1 0T9      -0.051400
     10 C7           1.5700     1.3010     2.0990 c3         1 0T9      -0.024100
     11 C1          -0.5160    -1.2810     0.6590 c3         1 0T9       0.193100
     12 O1          -1.9410    -1.3170     0.5790 oh         1 0T9      -0.586800
     13 C3          -0.0850    -1.3070     2.1280 c3         1 0T9       0.003800
     14 C11          2.1090    -2.0110     2.8810 c2         1 0T9      -0.156200
     15 C10          3.6030    -1.9610     3.0040 c3         1 0T9       0.026800
     16 C9           4.0770    -0.5160     2.8140 c3         1 0T9      -0.051700
     17 C15          5.5930    -0.4810     2.7640 c3         1 0T9      -0.045700
     18 C21          6.3110    -0.8580     4.0630 c3         1 0T9      -0.132400
     19 C18          7.6770    -0.1860     3.9130 c          1 0T9       0.617100
     20 O2           8.7020    -0.5120     4.4620 o          1 0T9      -0.523100
     21 C17          7.5000     0.9750     2.9380 c3         1 0T9      -0.131700
     22 C19          7.9230     2.2880     3.5980 c3         1 0T9      -0.146700
     23 C22          7.7880     3.4320     2.5900 c3         1 0T9       0.003900
     24 C20          9.3560     2.1850     4.0510 c          1 0T9       0.599100
     25 O3          10.1290     1.4770     3.4510 o          1 0T9      -0.531100
     26 C23          9.8260     2.9630     5.2530 c3         1 0T9      -0.123400
     27 C24         11.3100     2.6810     5.4950 c3         1 0T9      -0.019400
     28 C25         11.7860     3.4720     6.7160 c3         1 0T9      -0.055700
     29 C27         11.0680     2.9620     7.9660 c3         1 0T9      -0.009100
     30 C26         13.2960     3.2890     6.8850 c3         1 0T9      -0.025400
     31 C28         13.7920     4.1770     8.0280 c3         1 0T9      -0.001100
     32 H1          -0.3590     0.8590     0.5550 hc         1 0T9       0.027200
     33 H2          -0.3590     0.0480    -1.0210 hc         1 0T9       0.027200
     34 H3           1.8890     0.8860    -0.5090 hc         1 0T9       0.019700
     35 H4           1.8890    -0.8860    -0.5090 hc         1 0T9       0.019700
     36 H5           3.8960    -0.7050     0.6930 hc         1 0T9       0.032700
     37 H6           4.2150     1.6180     3.6160 hc         1 0T9       0.024367
     38 H7           5.6710     1.6810     4.6190 hc         1 0T9       0.024367
     39 H8           5.3960     2.9140     3.3820 hc         1 0T9       0.024367
     40 H9           6.0600     0.7470     0.4810 hc         1 0T9       0.022700
     41 H10          5.9680     2.4390     1.0150 hc         1 0T9       0.022700
     42 H11          3.7870     1.6300     0.1140 hc         1 0T9       0.029700
     43 H12          3.6770     2.0880     1.8170 hc         1 0T9       0.029700
     44 H13          1.7940     2.1350     1.4460 hc         1 0T9       0.015367
     45 H14          2.0820     1.4340     3.0440 hc         1 0T9       0.015367
     46 H15          0.5010     1.2540     2.2700 hc         1 0T9       0.015367
     47 H16         -0.0990    -2.1400     0.1470 h1         1 0T9       0.000700
     48 H17         -2.2140    -2.1370     0.2010 ho         1 0T9       0.388000
     49 H18         -0.3690    -2.2530     2.5730 hc         1 0T9       0.027700
     50 H19         -0.5590    -0.4910     2.6600 hc         1 0T9       0.027700
     51 H20          1.5740    -2.8030     3.3910 ha         1 0T9       0.103000
     52 H21          4.0490    -2.5900     2.2430 hc         1 0T9       0.022700
     53 H22          3.8950    -2.3110     3.9870 hc         1 0T9       0.022700
     54 H23          3.7090     0.1130     3.6160 hc         1 0T9       0.056700
     55 H24          5.9650    -1.0710     1.9340 hc         1 0T9       0.045700
     56 H25          6.4220    -1.9330     4.1400 hc         1 0T9       0.043200
     57 H26          5.7830    -0.4590     4.9210 hc         1 0T9       0.043200
     58 H27          8.0780     0.7980     2.0390 hc         1 0T9       0.071700
     59 H28          7.2870     2.4840     4.4530 hc         1 0T9       0.053700
     60 H29          8.4290     4.2530     2.8880 hc         1 0T9       0.013367
     61 H30          8.0800     3.0830     1.6070 hc         1 0T9       0.013367
     62 H31          6.7590     3.7690     2.5630 hc         1 0T9       0.013367
     63 H32          9.6840     4.0220     5.0750 hc         1 0T9       0.035200
     64 H33          9.2550     2.6630     6.1230 hc         1 0T9       0.035200
     65 H34         11.8810     2.9820     4.6250 hc         1 0T9       0.031700
     66 H35         11.4520     1.6220     5.6730 hc         1 0T9       0.031700
     67 H36         11.5640     4.5230     6.5750 hc         1 0T9       0.024700
     68 H37         11.6300     3.2480     8.8470 hc         1 0T9       0.006367
     69 H38         10.9890     1.8830     7.9230 hc         1 0T9       0.006367
     70 H39         10.0760     3.3950     8.0150 hc         1 0T9       0.006367
     71 H40         13.5110     2.2520     7.1130 hc         1 0T9       0.016700
     72 H41         13.7980     3.5680     5.9660 hc         1 0T9       0.016700
     73 H42         14.6950     4.6910     7.7200 hc         1 0T9       0.002367
     74 H43         14.0030     3.5640     8.8960 hc         1 0T9       0.002367
     75 H44         13.0300     4.9050     8.2770 hc         1 0T9       0.002367
@<TRIPOS>BOND
     1     1     4 1   
     2     1    11 1   
     3     1    32 1   
     4     1    33 1   
     5     2     3 1   
     6     2    13 1   
     7     2    14 2   
     8     3     4 1   
     9     3     5 1   
    10     3    10 1   
    11     4    34 1   
    12     4    35 1   
    13     5     9 1   
    14     5    16 1   
    15     5    36 1   
    16     6     7 1   
    17     6    37 1   
    18     6    38 1   
    19     6    39 1   
    20     7     8 1   
    21     7    17 1   
    22     7    21 1   
    23     8     9 1   
    24     8    40 1   
    25     8    41 1   
    26     9    42 1   
    27     9    43 1   
    28    10    44 1   
    29    10    45 1   
    30    10    46 1   
    31    11    12 1   
    32    11    13 1   
    33    11    47 1   
    34    12    48 1   
    35    13    49 1   
    36    13    50 1   
    37    14    15 1   
    38    14    51 1   
    39    15    16 1   
    40    15    52 1   
    41    15    53 1   
    42    16    17 1   
    43    16    54 1   
    44    17    18 1   
    45    17    55 1   
    46    18    19 1   
    47    18    56 1   
    48    18    57 1   
    49    19    20 2   
    50    19    21 1   
    51    21    22 1   
    52    21    58 1   
    53    22    23 1   
    54    22    24 1   
    55    22    59 1   
    56    23    60 1   
    57    23    61 1   
    58    23    62 1   
    59    24    25 2   
    60    24    26 1   
    61    26    27 1   
    62    26    63 1   
    63    26    64 1   
    64    27    28 1   
    65    27    65 1   
    66    27    66 1   
    67    28    29 1   
    68    28    30 1   
    69    28    67 1   
    70    29    68 1   
    71    29    69 1   
    72    29    70 1   
    73    30    31 1   
    74    30    71 1   
    75    30    72 1   
    76    31    73 1   
    77    31    74 1   
    78    31    75 1   
@<TRIPOS>SUBSTRUCTURE
     1 0T9         1 TEMP              0 ****  ****    0 ROOT
