@<TRIPOS>MOLECULE
molecule
   75    78     1     0     0
SMALL
bcc


@<TRIPOS>ATOM
      1 C2           0.0000     0.0000     0.0000 c3         1 0T9      -0.094400
      2 C4           1.4250    -1.1470     2.1890 c2         1 0T9      -0.111400
      3 C5           2.0390     0.0000     1.4430 c3         1 0T9      -0.013800
      4 C6           1.5290     0.0000     0.0000 c3         1 0T9      -0.067400
      5 C8           3.5580    -0.0170     1.4580 c3         1 0T9      -0.050700
      6 C16          5.2690     1.8680     3.6310 c3         1 0T9      -0.105100
      7 C14          6.0120     1.0060     2.6070 c3         1 0T9      -0.066000
      8 C13          5.6270     1.4280     1.2030 c3         1 0T9      -0.064400
      9 C12          4.0940     1.3710     1.1200 c3         1 0T9      -0.082400
     10 C7           1.5700     1.3010     2.0990 c3         1 0T9      -0.088100
     11 C1          -0.5160    -1.2810     0.6590 c3         1 0T9       0.149100
     12 O1          -1.9410    -1.3170     0.5790 oh         1 0T9      -0.607800
     13 C3          -0.0850    -1.3070     2.1280 c3         1 0T9      -0.049200
     14 C11          2.1090    -2.0110     2.8810 c2         1 0T9      -0.171200
     15 C10          3.6030    -1.9610     3.0040 c3         1 0T9      -0.039200
     16 C9           4.0770    -0.5160     2.8140 c3         1 0T9      -0.058700
     17 C15          5.5930    -0.4810     2.7640 c3         1 0T9      -0.065700
     18 C21          6.3110    -0.8580     4.0630 c3         1 0T9      -0.184400
     19 C18          7.6770    -0.1860     3.9130 c          1 0T9       0.573100
     20 O2           8.7020    -0.5120     4.4620 o          1 0T9      -0.492100
     21 C17          7.5000     0.9750     2.9380 c3         1 0T9      -0.153700
     22 C19          7.9230     2.2880     3.5980 c3         1 0T9      -0.167700
     23 C22          7.7880     3.4320     2.5900 c3         1 0T9      -0.079100
     24 C20          9.3560     2.1850     4.0510 c          1 0T9       0.562100
     25 O3          10.1290     1.4770     3.4510 o          1 0T9      -0.504100
     26 C23          9.8260     2.9630     5.2530 c3         1 0T9      -0.178400
     27 C24         11.3100     2.6810     5.4950 c3         1 0T9      -0.067400
     28 C25         11.7860     3.4720     6.7160 c3         1 0T9      -0.076700
     29 C27         11.0680     2.9620     7.9660 c3         1 0T9      -0.091100
     30 C26         13.2960     3.2890     6.8850 c3         1 0T9      -0.078400
     31 C28         13.7920     4.1770     8.0280 c3         1 0T9      -0.093100
     32 H1          -0.3590     0.0480    -1.0210 hc         1 0T9       0.053200
     33 H2          -0.3590     0.8590     0.5550 hc         1 0T9       0.053200
     34 H3           1.8890     0.8860    -0.5090 hc         1 0T9       0.045700
     35 H4           1.8890    -0.8860    -0.5090 hc         1 0T9       0.045700
     36 H5           3.8960    -0.7050     0.6930 hc         1 0T9       0.051700
     37 H6           4.3870     1.3410     3.9730 hc         1 0T9       0.044367
     38 H7           4.9760     2.8030     3.1710 hc         1 0T9       0.044367
     39 H8           5.9200     2.0680     4.4740 hc         1 0T9       0.044367
     40 H9           6.0600     0.7470     0.4810 hc         1 0T9       0.047200
     41 H10          5.9680     2.4390     1.0150 hc         1 0T9       0.047200
     42 H11          3.7870     1.6300     0.1140 hc         1 0T9       0.047700
     43 H12          3.6770     2.0880     1.8170 hc         1 0T9       0.047700
     44 H13          1.8550     2.1410     1.4770 hc         1 0T9       0.038700
     45 H14          2.0300     1.4000     3.0740 hc         1 0T9       0.038700
     46 H15          0.4920     1.2820     2.2080 hc         1 0T9       0.038700
     47 H16         -0.0990    -2.1400     0.1470 h1         1 0T9       0.032700
     48 H17         -2.2090    -2.0670     0.0740 ho         1 0T9       0.401000
     49 H18         -0.3690    -2.2530     2.5730 hc         1 0T9       0.057700
     50 H19         -0.5590    -0.4910     2.6600 hc         1 0T9       0.057700
     51 H20          1.5740    -2.8030     3.3900 ha         1 0T9       0.122000
     52 H21          3.8950    -2.3110     3.9870 hc         1 0T9       0.051200
     53 H22          4.0490    -2.5900     2.2430 hc         1 0T9       0.051200
     54 H23          3.7090     0.1130     3.6160 hc         1 0T9       0.071700
     55 H24          5.9650    -1.0710     1.9340 hc         1 0T9       0.065700
     56 H25          5.7830    -0.4590     4.9210 hc         1 0T9       0.072200
     57 H26          6.4220    -1.9330     4.1400 hc         1 0T9       0.072200
     58 H27          8.0780     0.7980     2.0390 hc         1 0T9       0.096700
     59 H28          7.2870     2.4840     4.4540 hc         1 0T9       0.074700
     60 H29          8.6170     4.1190     2.7100 hc         1 0T9       0.042700
     61 H30          6.8560     3.9570     2.7630 hc         1 0T9       0.042700
     62 H31          7.7950     3.0300     1.5850 hc         1 0T9       0.042700
     63 H32          9.6840     4.0220     5.0750 hc         1 0T9       0.062700
     64 H33          9.2550     2.6630     6.1230 hc         1 0T9       0.062700
     65 H34         11.4520     1.6220     5.6730 hc         1 0T9       0.058200
     66 H35         11.8810     2.9820     4.6250 hc         1 0T9       0.058200
     67 H36         11.5640     4.5230     6.5750 hc         1 0T9       0.045700
     68 H37         11.5640     3.3460     8.8500 hc         1 0T9       0.034367
     69 H38         10.0390     3.3000     7.9540 hc         1 0T9       0.034367
     70 H39         11.0920     1.8790     7.9810 hc         1 0T9       0.034367
     71 H40         13.7980     3.5680     5.9660 hc         1 0T9       0.043700
     72 H41         13.5110     2.2520     7.1130 hc         1 0T9       0.043700
     73 H42         13.7110     3.6390     8.9640 hc         1 0T9       0.032367
     74 H43         14.8270     4.4450     7.8540 hc         1 0T9       0.032367
     75 H44         13.1890     5.0760     8.0750 hc         1 0T9       0.032367
@<TRIPOS>BOND
     1    23    22 1   
     2    10     3 1   
     3     6     7 1   
     4     9     8 1   
     5     9     5 1   
     6     1     4 1   
     7     1    11 1   
     8     8     7 1   
     9     4     3 1   
    10    22    24 1   
    11    22    21 1   
    12     3     5 1   
    13     3     2 1   
    14     7    21 1   
    15     7    17 1   
    16     5    16 1   
    17    12    11 1   
    18    26    24 1   
    19    26    27 1   
    20    11    13 1   
    21    24    25 2   
    22    31    30 1   
    23    21    19 1   
    24    16    17 1   
    25    16    15 1   
    26    13     2 1   
    27     2    14 2   
    28    17    18 1   
    29    30    28 1   
    30    19    20 2   
    31    19    18 1   
    32    27    28 1   
    33    14    15 1   
    34    28    29 1   
    35     1    32 1   
    36     1    33 1   
    37     4    34 1   
    38     4    35 1   
    39     5    36 1   
    40     6    37 1   
    41     6    38 1   
    42     6    39 1   
    43     8    40 1   
    44     8    41 1   
    45     9    42 1   
    46     9    43 1   
    47    10    44 1   
    48    10    45 1   
    49    10    46 1   
    50    11    47 1   
    51    12    48 1   
    52    13    49 1   
    53    13    50 1   
    54    14    51 1   
    55    15    52 1   
    56    15    53 1   
    57    16    54 1   
    58    17    55 1   
    59    18    56 1   
    60    18    57 1   
    61    21    58 1   
    62    22    59 1   
    63    23    60 1   
    64    23    61 1   
    65    23    62 1   
    66    26    63 1   
    67    26    64 1   
    68    27    65 1   
    69    27    66 1   
    70    28    67 1   
    71    29    68 1   
    72    29    69 1   
    73    29    70 1   
    74    30    71 1   
    75    30    72 1   
    76    31    73 1   
    77    31    74 1   
    78    31    75 1   
@<TRIPOS>SUBSTRUCTURE
     1 0T9         1 TEMP              0 ****  ****    0 ROOT
