@<TRIPOS>MOLECULE
0T9
   75    78     1     0     0
SMALL
bcc


@<TRIPOS>ATOM
      1 C2          -0.0130     0.1880     0.0860 c3         1 0T9      -0.113400
      2 C4           1.1490    -0.6640     2.6010 c2         1 0T9      -0.108400
      3 C5           1.9680     0.2110     1.6830 c3         1 0T9       0.000200
      4 C6           1.4820     0.0250     0.2370 c3         1 0T9      -0.066400
      5 C8           3.4570    -0.2020     1.7360 c3         1 0T9      -0.049700
      6 C16          6.0780     1.7130     3.2420 c3         1 0T9      -0.089100
      7 C14          6.2610     0.3840     2.5290 c3         1 0T9      -0.041000
      8 C13          5.8340     0.4800     1.0740 c3         1 0T9      -0.065400
      9 C12          4.3460     0.7720     0.9690 c3         1 0T9      -0.076400
     10 C7           1.7820     1.6680     2.0960 c3         1 0T9      -0.084100
     11 C1          -0.7510    -0.7970     0.9840 c3         1 0T9       0.145100
     12 O1          -2.1560    -0.5770     0.9430 oh         1 0T9      -0.601800
     13 C3          -0.3330    -0.6150     2.4400 c3         1 0T9      -0.039200
     14 C11          1.6900    -1.4310     3.5590 c2         1 0T9      -0.167200
     15 C10          3.1390    -1.5360     3.8300 c3         1 0T9      -0.043200
     16 C9           3.9290    -0.4080     3.1830 c3         1 0T9      -0.046700
     17 C15          5.4040    -0.7500     3.1580 c3         1 0T9      -0.066700
     18 C21          6.1060    -1.0710     4.4690 c3         1 0T9      -0.180400
     19 C18          7.5640    -0.7770     4.1780 c          1 0T9       0.572100
     20 O2           8.4920    -0.9990     4.9540 o          1 0T9      -0.531100
     21 C17          7.6900    -0.1520     2.7880 c3         1 0T9      -0.156700
     22 C19          8.8480     0.8310     2.6970 c3         1 0T9      -0.146700
     23 C22          8.9090     1.5530     1.3640 c3         1 0T9      -0.088100
     24 C20         10.1640     0.0810     2.8690 c          1 0T9       0.580100
     25 O3          10.4570    -0.8750     2.1460 o          1 0T9      -0.536100
     26 C23         11.0510     0.5980     3.9620 c3         1 0T9      -0.178400
     27 C24         12.4500     0.0270     3.8940 c3         1 0T9      -0.072400
     28 C25         13.3250     0.5090     5.0440 c3         1 0T9      -0.065700
     29 C27         14.4710    -0.4610     5.2530 c3         1 0T9      -0.089100
     30 C26         13.8460     1.9150     4.7770 c3         1 0T9      -0.077400
     31 C28         14.3340     2.5970     6.0290 c3         1 0T9      -0.093100
     32 H1          -0.3200     1.2330     0.3530 hc         1 0T9       0.047700
     33 H2          -0.3040     0.0140    -0.9820 hc         1 0T9       0.047700
     34 H3           1.9960     0.7730    -0.4210 hc         1 0T9       0.044700
     35 H4           1.7760    -0.9990    -0.1170 hc         1 0T9       0.044700
     36 H5           3.5400    -1.2050     1.2250 hc         1 0T9       0.049700
     37 H6           6.3920     1.6270     4.3110 hc         1 0T9       0.039367
     38 H7           5.0120     2.0450     3.2170 hc         1 0T9       0.039367
     39 H8           6.6960     2.5040     2.7530 hc         1 0T9       0.039367
     40 H9           6.4010     1.2950     0.5530 hc         1 0T9       0.046200
     41 H10          6.0730    -0.4830     0.5500 hc         1 0T9       0.046200
     42 H11          4.1620     1.8190     1.3280 hc         1 0T9       0.044200
     43 H12          4.0600     0.7390    -0.1160 hc         1 0T9       0.044200
     44 H13          2.3570     1.8910     3.0260 hc         1 0T9       0.038033
     45 H14          2.1310     2.3520     1.2850 hc         1 0T9       0.038033
     46 H15          0.7040     1.8860     2.2890 hc         1 0T9       0.038033
     47 H16         -0.5340    -1.8510     0.6510 h1         1 0T9       0.036700
     48 H17         -2.4180    -0.6320     0.0170 ho         1 0T9       0.399000
     49 H18         -0.7190     0.3740     2.8080 hc         1 0T9       0.061200
     50 H19         -0.8290    -1.4100     3.0570 hc         1 0T9       0.061200
     51 H20          1.0510    -2.0550     4.2060 ha         1 0T9       0.124000
     52 H21          3.3230    -1.5230     4.9390 hc         1 0T9       0.049700
     53 H22          3.5070    -2.5280     3.4480 hc         1 0T9       0.049700
     54 H23          3.7600     0.5310     3.7760 hc         1 0T9       0.060700
     55 H24          5.5180    -1.6580     2.4940 hc         1 0T9       0.053700
     56 H25          5.7470    -0.4200     5.3060 hc         1 0T9       0.077700
     57 H26          5.9650    -2.1370     4.7720 hc         1 0T9       0.077700
     58 H27          7.8950    -0.9900     2.0590 hc         1 0T9       0.097700
     59 H28          8.7460     1.5870     3.5240 hc         1 0T9       0.064700
     60 H29          9.8800     2.1000     1.2730 hc         1 0T9       0.044367
     61 H30          8.8340     0.8210     0.5240 hc         1 0T9       0.044367
     62 H31          8.0820     2.2960     1.2740 hc         1 0T9       0.044367
     63 H32         10.5650     0.3140     4.9370 hc         1 0T9       0.074700
     64 H33         11.0830     1.7180     3.9090 hc         1 0T9       0.074700
     65 H34         12.3810    -1.0940     3.9170 hc         1 0T9       0.054200
     66 H35         12.9240     0.3040     2.9160 hc         1 0T9       0.054200
     67 H36         12.7030     0.5300     5.9830 hc         1 0T9       0.048700
     68 H37         14.0800    -1.4710     5.5230 hc         1 0T9       0.034367
     69 H38         15.1360    -0.1070     6.0770 hc         1 0T9       0.034367
     70 H39         15.0790    -0.5550     4.3210 hc         1 0T9       0.034367
     71 H40         13.0270     2.5330     4.3210 hc         1 0T9       0.037200
     72 H41         14.6780     1.8640     4.0260 hc         1 0T9       0.037200
     73 H42         15.1820     2.0320     6.4870 hc         1 0T9       0.032367
     74 H43         13.5150     2.6700     6.7850 hc         1 0T9       0.032367
     75 H44         14.6880     3.6300     5.7920 hc         1 0T9       0.032367
@<TRIPOS>BOND
     1     1     4 1   
     2     1    11 1   
     3     1    32 1   
     4     1    33 1   
     5     2     3 1   
     6     2    13 1   
     7     2    14 2   
     8     3     4 1   
     9     3     5 1   
    10     3    10 1   
    11     4    34 1   
    12     4    35 1   
    13     5     9 1   
    14     5    16 1   
    15     5    36 1   
    16     6     7 1   
    17     6    37 1   
    18     6    38 1   
    19     6    39 1   
    20     7     8 1   
    21     7    17 1   
    22     7    21 1   
    23     8     9 1   
    24     8    40 1   
    25     8    41 1   
    26     9    42 1   
    27     9    43 1   
    28    10    44 1   
    29    10    45 1   
    30    10    46 1   
    31    11    12 1   
    32    11    13 1   
    33    11    47 1   
    34    12    48 1   
    35    13    49 1   
    36    13    50 1   
    37    14    15 1   
    38    14    51 1   
    39    15    16 1   
    40    15    52 1   
    41    15    53 1   
    42    16    17 1   
    43    16    54 1   
    44    17    18 1   
    45    17    55 1   
    46    18    19 1   
    47    18    56 1   
    48    18    57 1   
    49    19    20 2   
    50    19    21 1   
    51    21    22 1   
    52    21    58 1   
    53    22    23 1   
    54    22    24 1   
    55    22    59 1   
    56    23    60 1   
    57    23    61 1   
    58    23    62 1   
    59    24    25 2   
    60    24    26 1   
    61    26    27 1   
    62    26    63 1   
    63    26    64 1   
    64    27    28 1   
    65    27    65 1   
    66    27    66 1   
    67    28    29 1   
    68    28    30 1   
    69    28    67 1   
    70    29    68 1   
    71    29    69 1   
    72    29    70 1   
    73    30    31 1   
    74    30    71 1   
    75    30    72 1   
    76    31    73 1   
    77    31    74 1   
    78    31    75 1   
@<TRIPOS>SUBSTRUCTURE
     1 0T9         1 TEMP              0 ****  ****    0 ROOT
