@<TRIPOS>MOLECULE
molecule
   41    44     1     0     0
SMALL
bcc


@<TRIPOS>ATOM
      1 N1           0.0000     0.0000     0.0000 nv         1 0TA      -1.060500
      2 N3           4.6780     0.0000     0.0000 n          1 0TA      -0.401300
      3 C4           4.6700     0.0070    -1.4650 c3         1 0TA       0.099700
      4 C5           5.5740    -1.1150    -2.0020 c3         1 0TA      -0.089900
      5 C6           6.6790    -0.4310    -2.8360 c3         1 0TA      -0.082400
      6 C7           6.7450     1.0080    -2.2690 c3         1 0TA      -0.082400
      7 C8           5.2550     1.3350    -1.9900 c3         1 0TA      -0.089900
      8 C10          5.8760    -0.0070     2.1240 cc         1 0TA      -0.091400
      9 C13          7.1700    -0.0070     2.8510 cc         1 0TA      -0.266100
     10 C15          7.6480    -1.0080     3.6470 cd         1 0TA      -0.097300
     11 C9           5.8510     0.0000     0.6610 c          1 0TA       0.697700
     12 N5           8.8510    -0.6180     4.1150 na         1 0TA      -0.042600
     13 N4           9.1290     0.6550     3.6000 nd         1 0TA      -0.512800
     14 C14          8.1320     1.0220     2.8400 cc         1 0TA       0.367200
     15 C11          4.6970    -0.0130     2.8160 cd         1 0TA      -0.043200
     16 C12          3.4790    -0.0020     2.0960 ca         1 0TA      -0.378400
     17 C1           2.2430    -0.0030     2.7590 ca         1 0TA       0.523600
     18 C            2.1760    -0.0150     4.2630 c3         1 0TA      -0.148400
     19 C3           3.4890    -0.0010     0.6850 ca         1 0TA       0.607200
     20 N2           2.3280    -0.0000     0.0390 nb         1 0TA      -0.798000
     21 C2           1.1860    -0.0010     0.7080 ca         1 0TA       0.978900
     22 N            1.1380    -0.0020     2.0360 nb         1 0TA      -0.777000
     23 H5          -0.4460    -0.8660    -0.2310 hn         1 0TA       0.448300
     24 H4          -0.4230     0.8670    -0.2670 hn         1 0TA       0.448300
     25 H6           3.6600    -0.1230    -1.8370 h1         1 0TA       0.096700
     26 H8           6.0170    -1.6590    -1.1770 hc         1 0TA       0.051450
     27 H7           4.9990    -1.7850    -2.6300 hc         1 0TA       0.051450
     28 H9           7.6260    -0.9370    -2.6940 hc         1 0TA       0.053950
     29 H10          6.4050    -0.4130    -3.8840 hc         1 0TA       0.053950
     30 H12          7.3200     1.0320    -1.3510 hc         1 0TA       0.053950
     31 H11          7.1540     1.6900    -3.0050 hc         1 0TA       0.053950
     32 H13          4.7560     1.6330    -2.9040 hc         1 0TA       0.051450
     33 H14          5.1730     2.1080    -1.2350 hc         1 0TA       0.051450
     34 H17          7.1510    -1.9470     3.8630 h4         1 0TA       0.172000
     35 H            9.4420    -1.1450     4.7270 hn         1 0TA       0.330700
     36 H16          8.0550     1.9580     2.3010 h4         1 0TA       0.056100
     37 H15          4.6950     0.1620     3.8850 ha         1 0TA       0.147000
     38 H2           1.1390    -0.0190     4.5790 hc         1 0TA       0.061367
     39 H1           2.6710    -0.9020     4.6400 hc         1 0TA       0.061367
     40 H3           2.6680     0.8670     4.6540 hc         1 0TA       0.061367
     41 O            6.8980     0.0050     0.0360 o          1 0TA      -0.615500
@<TRIPOS>BOND
     1    18    17 1   
     2    22    17 ar  
     3    22    21 ar  
     4    17    16 ar  
     5     1    21 1   
     6    21    20 ar  
     7    16    15 1   
     8    16    19 ar  
     9    15     8 2   
    10    20    19 ar  
    11    19     2 1   
    12    14    13 2   
    13    14     9 1   
    14     8     9 1   
    15     8    11 1   
    16    13    12 1   
    17     2    11 1   
    18     2     3 1   
    19     9    10 2   
    20    11    41 2   
    21     7     3 1   
    22     7     6 1   
    23     3     4 1   
    24    12    10 1   
    25     6     5 1   
    26     4     5 1   
    27     1    23 1   
    28     1    24 1   
    29     3    25 1   
    30     4    26 1   
    31     4    27 1   
    32     5    28 1   
    33     5    29 1   
    34     6    30 1   
    35     6    31 1   
    36     7    32 1   
    37     7    33 1   
    38    10    34 1   
    39    12    35 1   
    40    14    36 1   
    41    15    37 1   
    42    18    38 1   
    43    18    39 1   
    44    18    40 1   
@<TRIPOS>SUBSTRUCTURE
     1 0TA         1 TEMP              0 ****  ****    0 ROOT
