@<TRIPOS>MOLECULE
0TA
   41    44     1     0     0
SMALL
bcc


@<TRIPOS>ATOM
      1 N1           0.0000     0.0000     0.0000 nv         1 0TA      -0.641500
      2 N3           4.6780     0.0000     0.0000 n          1 0TA       0.019700
      3 C4           4.6700     0.0070    -1.4650 c3         1 0TA      -0.012300
      4 C5           5.5740    -1.1150    -2.0020 c3         1 0TA      -0.031900
      5 C6           6.6790    -0.4310    -2.8360 c3         1 0TA      -0.034900
      6 C7           6.7450     1.0080    -2.2690 c3         1 0TA      -0.034900
      7 C8           5.2550     1.3350    -1.9900 c3         1 0TA      -0.031900
      8 C10          5.8760    -0.0070     2.1240 cc         1 0TA      -0.073400
      9 C13          7.1700    -0.0070     2.8510 cc         1 0TA      -0.268100
     10 C15          7.6480    -1.0080     3.6470 cd         1 0TA      -0.253300
     11 C9           5.8510     0.0000     0.6610 c          1 0TA       0.605700
     12 N5           8.8510    -0.6180     4.1150 na         1 0TA       0.454400
     13 N4           9.1290     0.6550     3.6000 nd         1 0TA      -0.666800
     14 C14          8.1320     1.0220     2.8400 cc         1 0TA       0.431200
     15 C11          4.6970    -0.0130     2.8160 cd         1 0TA      -0.027200
     16 C12          3.4790    -0.0020     2.0960 ca         1 0TA      -0.363400
     17 C1           2.2430    -0.0030     2.7590 ca         1 0TA       0.474600
     18 C            2.1760    -0.0150     4.2630 c3         1 0TA      -0.050400
     19 C3           3.4890    -0.0010     0.6850 ca         1 0TA       0.409200
     20 N2           2.3280    -0.0000     0.0390 nb         1 0TA      -0.674000
     21 C2           1.1860    -0.0010     0.7080 ca         1 0TA       0.757900
     22 N            1.1380    -0.0020     2.0360 nb         1 0TA      -0.659000
     23 H5          -0.4460    -0.8660    -0.2310 hn         1 0TA       0.283300
     24 H4          -0.4230     0.8670    -0.2670 hn         1 0TA       0.283300
     25 H6           3.6600    -0.1230    -1.8370 h1         1 0TA       0.069700
     26 H8           6.0170    -1.6590    -1.1770 hc         1 0TA       0.022200
     27 H7           4.9990    -1.7850    -2.6300 hc         1 0TA       0.022200
     28 H9           7.6260    -0.9370    -2.6940 hc         1 0TA       0.028700
     29 H10          6.4050    -0.4130    -3.8840 hc         1 0TA       0.028700
     30 H12          7.3200     1.0320    -1.3510 hc         1 0TA       0.028700
     31 H11          7.1540     1.6900    -3.0050 hc         1 0TA       0.028700
     32 H13          4.7560     1.6330    -2.9040 hc         1 0TA       0.022200
     33 H14          5.1730     2.1080    -1.2350 hc         1 0TA       0.022200
     34 H17          7.1510    -1.9470     3.8630 h4         1 0TA       0.145000
     35 H            9.4420    -1.1450     4.7270 hn         1 0TA       0.146700
     36 H16          8.0550     1.9580     2.3010 h4         1 0TA       0.008100
     37 H15          4.6950     0.1620     3.8850 ha         1 0TA       0.123000
     38 H2           1.1390    -0.0190     4.5790 hc         1 0TA       0.022033
     39 H1           2.6710    -0.9020     4.6400 hc         1 0TA       0.022033
     40 H3           2.6680     0.8670     4.6540 hc         1 0TA       0.022033
     41 O            6.8980     0.0050     0.0360 o          1 0TA      -0.658500
@<TRIPOS>BOND
     1     1    21 1   
     2     1    23 1   
     3     1    24 1   
     4     2     3 1   
     5     2    11 1   
     6     2    19 1   
     7     3     4 1   
     8     3     7 1   
     9     3    25 1   
    10     4     5 1   
    11     4    26 1   
    12     4    27 1   
    13     5     6 1   
    14     5    28 1   
    15     5    29 1   
    16     6     7 1   
    17     6    30 1   
    18     6    31 1   
    19     7    32 1   
    20     7    33 1   
    21     8     9 1   
    22     8    11 1   
    23     8    15 2   
    24     9    10 2   
    25     9    14 1   
    26    10    12 1   
    27    10    34 1   
    28    11    41 2   
    29    12    13 1   
    30    12    35 1   
    31    13    14 2   
    32    14    36 1   
    33    15    16 1   
    34    15    37 1   
    35    16    17 ar  
    36    16    19 ar  
    37    17    18 1   
    38    17    22 ar  
    39    18    38 1   
    40    18    39 1   
    41    18    40 1   
    42    19    20 ar  
    43    20    21 ar  
    44    21    22 ar  
@<TRIPOS>SUBSTRUCTURE
     1 0TA         1 TEMP              0 ****  ****    0 ROOT
