@<TRIPOS>MOLECULE
0TA
   41    44     1     0     0
SMALL
bcc


@<TRIPOS>ATOM
      1 N1           0.0190     0.4260    -0.2170 nv         1 0TA      -0.937500
      2 N3           4.7450    -0.0510     0.0970 n          1 0TA      -0.413300
      3 C4           4.8470    -0.1640    -1.3580 c3         1 0TA       0.097700
      4 C5           5.4510    -1.4930    -1.8650 c3         1 0TA      -0.091400
      5 C6           6.0270    -1.1800    -3.2380 c3         1 0TA      -0.074900
      6 C7           6.1720     0.3340    -3.3460 c3         1 0TA      -0.074900
      7 C8           5.6840     0.9410    -2.0390 c3         1 0TA      -0.091400
      8 C10          5.8130     0.0410     2.3490 cc         1 0TA      -0.088400
      9 C13          7.0160     0.0100     3.1290 cc         1 0TA      -0.227100
     10 C15          8.3500    -0.1560     2.7010 cd         1 0TA      -0.097300
     11 C9           5.9250    -0.0960     0.8790 c          1 0TA       0.711700
     12 N5           9.1370    -0.1120     3.8490 na         1 0TA      -0.024600
     13 N4           8.4170     0.0660     4.9600 nd         1 0TA      -0.520800
     14 C14          7.1200     0.1460     4.5740 cc         1 0TA       0.303200
     15 C11          4.5880     0.1910     2.9210 cd         1 0TA      -0.021200
     16 C12          3.4010     0.2220     2.1330 ca         1 0TA      -0.408400
     17 C1           2.0990     0.3630     2.7000 ca         1 0TA       0.535600
     18 C            1.9690     0.4720     4.1880 c3         1 0TA      -0.164400
     19 C3           3.4900     0.1030     0.7030 ca         1 0TA       0.623200
     20 N2           2.3600     0.1320    -0.0760 nb         1 0TA      -0.818000
     21 C2           1.1570     0.2990     0.5710 ca         1 0TA       0.922900
     22 N            0.9860     0.3980     1.9580 nb         1 0TA      -0.772000
     23 H5          -0.8640     0.3470     0.2270 hn         1 0TA       0.439800
     24 H4           0.0830     0.1740    -1.1740 hn         1 0TA       0.439800
     25 H6           3.8080    -0.0950    -1.7980 h1         1 0TA       0.090700
     26 H8           6.2590    -1.8580    -1.1820 hc         1 0TA       0.057450
     27 H7           4.6620    -2.2810    -1.9210 hc         1 0TA       0.057450
     28 H9           7.0170    -1.6830    -3.3680 hc         1 0TA       0.041700
     29 H10          5.3490    -1.5620    -4.0420 hc         1 0TA       0.041700
     30 H12          5.5690     0.7220    -4.2050 hc         1 0TA       0.041700
     31 H11          7.2380     0.6180    -3.5320 hc         1 0TA       0.041700
     32 H13          5.0570     1.8490    -2.2160 hc         1 0TA       0.057450
     33 H14          6.5560     1.2410    -1.4040 hc         1 0TA       0.057450
     34 H17          8.7600    -0.2940     1.6970 h4         1 0TA       0.209000
     35 H           10.1250    -0.1970     3.9010 hn         1 0TA       0.321700
     36 H16          6.3130     0.2930     5.2910 h4         1 0TA       0.038100
     37 H15          4.4920     0.2930     4.0150 ha         1 0TA       0.142000
     38 H2           0.9040     0.5650     4.5150 hc         1 0TA       0.063700
     39 H1           2.5280     1.3740     4.5410 hc         1 0TA       0.063700
     40 H3           2.4080    -0.4400     4.6640 hc         1 0TA       0.063700
     41 O            7.0200    -0.2510     0.3010 o          1 0TA      -0.639500
@<TRIPOS>BOND
     1     1    21 1   
     2     1    23 1   
     3     1    24 1   
     4     2     3 1   
     5     2    11 1   
     6     2    19 1   
     7     3     4 1   
     8     3     7 1   
     9     3    25 1   
    10     4     5 1   
    11     4    26 1   
    12     4    27 1   
    13     5     6 1   
    14     5    28 1   
    15     5    29 1   
    16     6     7 1   
    17     6    30 1   
    18     6    31 1   
    19     7    32 1   
    20     7    33 1   
    21     8     9 1   
    22     8    11 1   
    23     8    15 2   
    24     9    10 2   
    25     9    14 1   
    26    10    12 1   
    27    10    34 1   
    28    11    41 2   
    29    12    13 1   
    30    12    35 1   
    31    13    14 2   
    32    14    36 1   
    33    15    16 1   
    34    15    37 1   
    35    16    17 ar  
    36    16    19 ar  
    37    17    18 1   
    38    17    22 ar  
    39    18    38 1   
    40    18    39 1   
    41    18    40 1   
    42    19    20 ar  
    43    20    21 ar  
    44    21    22 ar  
@<TRIPOS>SUBSTRUCTURE
     1 0TA         1 TEMP              0 ****  ****    0 ROOT
