@<TRIPOS>MOLECULE
0TB
   46    49     1     0     0
SMALL
bcc


@<TRIPOS>ATOM
      1 N1          -0.0460    -0.0710    -0.0740 nb         1 0TB      -0.774000
      2 N3           0.0170    -0.2070     2.3950 nb         1 0TB      -0.778000
      3 C4           1.3760    -0.0330     2.3590 ca         1 0TB       0.657200
      4 C5           2.0690     0.1140     1.1050 ca         1 0TB      -0.433400
      5 C6           1.2790     0.0960    -0.0860 ca         1 0TB       0.539600
      6 C8           1.9640     0.2750    -1.4060 c3         1 0TB      -0.165400
      7 C13          4.2120     0.3050     2.2270 cc         1 0TB      -0.153400
      8 C15          5.6620     0.4280     2.1990 ca         1 0TB      -0.158100
      9 C17          7.7560     1.3160     3.0250 ca         1 0TB      -0.003400
     10 C20          6.4070    -0.2450     1.2060 ca         1 0TB       0.418200
     11 C22         10.4930     0.0420     0.9180 c3         1 0TB       0.124700
     12 C24          2.1510    -0.9480     6.9800 c3         1 0TB      -0.091400
     13 C26          1.4930     1.0150     5.6880 c3         1 0TB       0.137800
     14 C2          -0.6420    -0.2400     1.1850 ca         1 0TB       0.925900
     15 N7          -2.0030    -0.4930     1.2100 nv         1 0TB      -0.942500
     16 N9           2.1220     0.0110     3.5630 n          1 0TB      -0.316700
     17 N10          1.4200    -0.1440     4.7580 nh         1 0TB      -0.429600
     18 C11          3.4830     0.2680     1.0810 cd         1 0TB       0.012800
     19 C12          3.5400     0.2120     3.5350 c          1 0TB       0.696700
     20 O14          4.1490     0.3020     4.6190 o          1 0TB      -0.627500
     21 C16          6.3620     1.2150     3.1270 ca         1 0TB      -0.078000
     22 C18          8.4110     0.5990     1.9690 ca         1 0TB       0.598600
     23 N19          7.7430    -0.1710     1.0780 nb         1 0TB      -0.712000
     24 O21          9.7790     0.7530     1.9310 os         1 0TB      -0.433100
     25 C23          1.7880    -1.3530     5.5460 c3         1 0TB       0.137800
     26 C25          2.1040     0.5720     7.0210 c3         1 0TB      -0.091400
     27 F27          8.4690     2.0650     3.8910 f          1 0TB      -0.116900
     28 H1           2.5100     1.2510    -1.4110 hc         1 0TB       0.064367
     29 H2           1.2430     0.2690    -2.2610 hc         1 0TB       0.064367
     30 H3           2.6970    -0.5570    -1.5570 hc         1 0TB       0.064367
     31 H4           5.9050    -0.8950     0.4660 h4         1 0TB       0.024100
     32 H5          11.5570     0.3310     1.1160 h1         1 0TB       0.051700
     33 H6          10.3500    -1.0580     1.0340 h1         1 0TB       0.051700
     34 H7          10.1710     0.3760    -0.0970 h1         1 0TB       0.051700
     35 H8           3.1710    -1.3220     7.2430 hc         1 0TB       0.053700
     36 H9           1.4230    -1.3920     7.7020 hc         1 0TB       0.053700
     37 H10          2.0630     1.8860     5.2680 h1         1 0TB       0.063450
     38 H11          0.4220     1.3280     5.8270 h1         1 0TB       0.063450
     39 H12         -2.4750    -0.4820     2.0820 hn         1 0TB       0.446800
     40 H13         -2.5270    -0.3670     0.3800 hn         1 0TB       0.446800
     41 H14          3.9840     0.3590     0.1010 ha         1 0TB       0.144000
     42 H15          5.8310     1.7360     3.9400 ha         1 0TB       0.178000
     43 H16          0.8630    -1.9920     5.5340 h1         1 0TB       0.063450
     44 H17          2.6280    -1.9400     5.0880 h1         1 0TB       0.063450
     45 H18          3.1360     0.9910     7.1240 hc         1 0TB       0.053700
     46 H19          1.4880     0.9410     7.8760 hc         1 0TB       0.053700
@<TRIPOS>BOND
     1     1     5 ar  
     2     1    14 ar  
     3     2     3 ar  
     4     2    14 ar  
     5     3     4 ar  
     6     3    16 1   
     7     4     5 ar  
     8     4    18 1   
     9     5     6 1   
    10     6    28 1   
    11     6    29 1   
    12     6    30 1   
    13     7     8 1   
    14     7    18 2   
    15     7    19 1   
    16     8    10 ar  
    17     8    21 ar  
    18     9    21 ar  
    19     9    22 ar  
    20     9    27 1   
    21    10    23 ar  
    22    10    31 1   
    23    11    24 1   
    24    11    32 1   
    25    11    33 1   
    26    11    34 1   
    27    12    25 1   
    28    12    26 1   
    29    12    35 1   
    30    12    36 1   
    31    13    17 1   
    32    13    26 1   
    33    13    37 1   
    34    13    38 1   
    35    14    15 1   
    36    15    39 1   
    37    15    40 1   
    38    16    17 1   
    39    16    19 1   
    40    17    25 1   
    41    18    41 1   
    42    19    20 2   
    43    21    42 1   
    44    22    23 ar  
    45    22    24 1   
    46    25    43 1   
    47    25    44 1   
    48    26    45 1   
    49    26    46 1   
@<TRIPOS>SUBSTRUCTURE
     1 0TB         1 TEMP              0 ****  ****    0 ROOT
