@<TRIPOS>MOLECULE
0TB
   46    49     1     0     0
SMALL
bcc


@<TRIPOS>ATOM
      1 N1           0.0000     0.0000     0.0000 nb         1 0TB      -0.652000
      2 N3          -0.0990    -0.0000     2.3220 nb         1 0TB      -0.633000
      3 C4           1.2270     0.0000     2.4180 ca         1 0TB       0.427200
      4 C5           1.9920     0.0000     1.2320 ca         1 0TB      -0.374400
      5 C6           1.3200     0.0000     0.0000 ca         1 0TB       0.475600
      6 C8           2.0890     0.0010    -1.2960 c3         1 0TB      -0.050400
      7 C13          4.0120     0.0020     2.5230 cc         1 0TB      -0.139400
      8 C15          5.4910     0.0000     2.6240 ca         1 0TB      -0.169100
      9 C17          7.6120     1.0470     2.2830 ca         1 0TB      -0.035400
     10 C20          6.1610    -1.0920     3.1710 ca         1 0TB       0.467200
     11 C22         10.1120    -1.3110     3.5490 c3         1 0TB       0.255700
     12 C24          0.9570    -0.7280     7.0620 c3         1 0TB      -0.015400
     13 C26          1.3740     1.2000     5.6090 c3         1 0TB       0.111300
     14 C2          -0.6870     0.0010     1.1360 ca         1 0TB       0.755900
     15 N7          -2.0670     0.0010     1.0800 nv         1 0TB      -0.639500
     16 N9           1.8440    -0.0010     3.6430 n          1 0TB       0.095300
     17 N10          1.0900    -0.0010     4.7820 nh         1 0TB      -0.389600
     18 C11          3.4040     0.0010     1.2960 cd         1 0TB       0.008800
     19 C12          3.1890    -0.0010     3.7340 c          1 0TB       0.595700
     20 O14          3.7220    -0.0020     4.8290 o          1 0TB      -0.677500
     21 C16          6.2340     1.0950     2.1670 ca         1 0TB      -0.061000
     22 C18          8.2080    -0.0780     2.8460 ca         1 0TB       0.604600
     23 N19          7.4750    -1.0970     3.2630 nb         1 0TB      -0.640000
     24 O21          9.5590    -0.1320     2.9630 os         1 0TB      -0.419100
     25 C23          1.4520    -1.1430     5.6600 c3         1 0TB       0.111300
     26 C25          0.9060     0.8140     7.0280 c3         1 0TB      -0.015400
     27 F27          8.3700     2.0800     1.8540 f          1 0TB      -0.113900
     28 H1           1.3980    -0.0730    -2.1260 hc         1 0TB       0.023033
     29 H2           2.6560     0.9200    -1.3790 hc         1 0TB       0.023033
     30 H3           2.7670    -0.8440    -1.3140 hc         1 0TB       0.023033
     31 H4           5.5960    -1.9460     3.5240 h4         1 0TB      -0.011900
     32 H5           9.8390    -2.1730     2.9520 h1         1 0TB       0.001700
     33 H6          11.1920    -1.2250     3.5840 h1         1 0TB       0.001700
     34 H7           9.7260    -1.4310     4.5540 h1         1 0TB       0.001700
     35 H8           1.6550    -1.0630     7.8200 hc         1 0TB       0.019950
     36 H9          -0.0310    -1.1320     7.2460 hc         1 0TB       0.019950
     37 H10          0.8090     2.0500     5.2450 h1         1 0TB       0.040200
     38 H11          2.4360     1.4150     5.6080 h1         1 0TB       0.040200
     39 H12         -2.5670    -0.8660     1.0590 hn         1 0TB       0.284300
     40 H13         -2.5670     0.8670     1.0600 hn         1 0TB       0.284300
     41 H14          3.9870     0.1890     0.4030 ha         1 0TB       0.123000
     42 H15          5.7430     1.9570     1.7330 ha         1 0TB       0.125000
     43 H16          0.9460    -2.0440     5.3330 h1         1 0TB       0.040200
     44 H17          2.5260    -1.2870     5.6670 h1         1 0TB       0.040200
     45 H18          1.5790     1.2270     7.7700 hc         1 0TB       0.019950
     46 H19         -0.1070     1.1590     7.1960 hc         1 0TB       0.019950
@<TRIPOS>BOND
     1     1     5 ar  
     2     1    14 ar  
     3     2     3 ar  
     4     2    14 ar  
     5     3     4 ar  
     6     3    16 1   
     7     4     5 ar  
     8     4    18 1   
     9     5     6 1   
    10     6    28 1   
    11     6    29 1   
    12     6    30 1   
    13     7     8 1   
    14     7    18 2   
    15     7    19 1   
    16     8    10 ar  
    17     8    21 ar  
    18     9    21 ar  
    19     9    22 ar  
    20     9    27 1   
    21    10    23 ar  
    22    10    31 1   
    23    11    24 1   
    24    11    32 1   
    25    11    33 1   
    26    11    34 1   
    27    12    25 1   
    28    12    26 1   
    29    12    35 1   
    30    12    36 1   
    31    13    17 1   
    32    13    26 1   
    33    13    37 1   
    34    13    38 1   
    35    14    15 1   
    36    15    39 1   
    37    15    40 1   
    38    16    17 1   
    39    16    19 1   
    40    17    25 1   
    41    18    41 1   
    42    19    20 2   
    43    21    42 1   
    44    22    23 ar  
    45    22    24 1   
    46    25    43 1   
    47    25    44 1   
    48    26    45 1   
    49    26    46 1   
@<TRIPOS>SUBSTRUCTURE
     1 0TB         1 TEMP              0 ****  ****    0 ROOT
