@<TRIPOS>MOLECULE
molecule
   44    43     1     0     0
SMALL
bcc


@<TRIPOS>ATOM
      1 O18          0.0000     0.0000     0.0000 o          1 0TF      -0.569100
      2 C11          1.2130     0.0000     0.0000 c          1 0TF       0.629100
      3 C12          1.9670     0.0000     1.3050 c3         1 0TF       0.022500
      4 C14          2.4380     1.4210     1.6220 c3         1 0TF      -0.097400
      5 C15          3.3070     1.4000     2.8800 c3         1 0TF      -0.131400
      6 C16          3.7790     2.8210     3.1980 c3         1 0TF       0.103800
      7 N17          4.6150     2.8020     4.4060 nz         1 0TF      -0.810600
      8 N13          1.0840    -0.4740     2.3790 nz         1 0TF      -0.796600
      9 N6           1.8870    -0.0050    -1.1670 ns         1 0TF      -0.534900
     10 C5           1.1550    -0.0050    -2.4370 c3         1 0TF       0.101000
     11 C4           2.1490    -0.0110    -3.5990 c3         1 0TF      -0.098400
     12 C3           1.3840    -0.0110    -4.9240 c3         1 0TF      -0.096400
     13 C2           2.3780    -0.0180    -6.0870 c3         1 0TF      -0.089400
     14 C1           1.6140    -0.0170    -7.4120 c3         1 0TF      -0.016500
     15 N7           0.8570    -1.2690    -7.5410 nz         1 0TF      -0.804600
     16 C8           2.5890     0.1000    -8.5550 c          1 0TF       0.864600
     17 O10          2.9160    -0.8840    -9.1740 o          1 0TF      -0.755800
     18 O9           3.0950     1.3000    -8.8850 o          1 0TF      -0.755800
     19 H1           2.8250    -0.6560     1.2260 hx         1 0TF       0.125700
     20 H2           1.5780     2.0580     1.7870 hc         1 0TF       0.107700
     21 H3           3.0170     1.8030     0.7900 hc         1 0TF       0.107700
     22 H4           4.1680     0.7630     2.7150 hc         1 0TF       0.063700
     23 H5           2.7290     1.0170     3.7130 hc         1 0TF       0.063700
     24 H6           2.9190     3.4580     3.3630 hx         1 0TF       0.128200
     25 H7           4.3570     3.2040     2.3650 hx         1 0TF       0.128200
     26 H8           4.0780     2.4570     5.1770 hn         1 0TF       0.469467
     27 H9           4.9310     3.7300     4.6080 hn         1 0TF       0.469467
     28 H11          0.5980    -1.2930     2.0740 hn         1 0TF       0.468800
     29 H12          1.6310    -0.6920     3.1880 hn         1 0TF       0.468800
     30 H14          2.8870    -0.0510    -1.1670 hn         1 0TF       0.327500
     31 H15          0.5290    -0.8870    -2.4920 h1         1 0TF       0.075700
     32 H16          0.5350     0.8820    -2.4960 h1         1 0TF       0.075700
     33 H17          2.7680    -0.8980    -3.5400 hc         1 0TF       0.060200
     34 H18          2.7750     0.8710    -3.5430 hc         1 0TF       0.060200
     35 H19          0.7580    -0.8930    -4.9800 hc         1 0TF       0.042200
     36 H20          0.7650     0.8760    -4.9840 hc         1 0TF       0.042200
     37 H21          2.9980    -0.9040    -6.0270 hc         1 0TF       0.088700
     38 H22          3.0050     0.8650    -6.0310 hc         1 0TF       0.088700
     39 H23          0.9290     0.8220    -7.4340 hx         1 0TF       0.106700
     40 H24          1.1460    -1.7500    -8.3700 hn         1 0TF       0.442133
     41 H25          1.0310    -1.8470    -6.7430 hn         1 0TF       0.442133
     42 H173         5.4000     2.1980     4.2600 hn         1 0TF       0.469467
     43 H133         0.4340     0.2480     2.6200 hn         1 0TF       0.468800
     44 H73         -0.1200    -1.0630    -7.6060 hn         1 0TF       0.442133
@<TRIPOS>BOND
     1    18    16 1   
     2    17    16 1   
     3    16    14 1   
     4    14    13 1   
     5    14    15 1   
     6     8     3 1   
     7    12    13 1   
     8    12    11 1   
     9    11    10 1   
    10     9    10 1   
    11     9     2 1   
    12     2     3 1   
    13     2     1 2   
    14     3     4 1   
    15     4     5 1   
    16     5     6 1   
    17     6     7 1   
    18     3    19 1   
    19     4    20 1   
    20     4    21 1   
    21     5    22 1   
    22     5    23 1   
    23     6    24 1   
    24     6    25 1   
    25     7    26 1   
    26     7    27 1   
    27     8    28 1   
    28     8    29 1   
    29     9    30 1   
    30    10    31 1   
    31    10    32 1   
    32    11    33 1   
    33    11    34 1   
    34    12    35 1   
    35    12    36 1   
    36    13    37 1   
    37    13    38 1   
    38    14    39 1   
    39    15    40 1   
    40    15    41 1   
    41    42     7 1   
    42    43     8 1   
    43    44    15 1   
@<TRIPOS>SUBSTRUCTURE
     1 0TF         1 TEMP              0 ****  ****    0 ROOT
