@<TRIPOS>MOLECULE
0TI
   18    19     1     0     0
SMALL
bcc


@<TRIPOS>ATOM
      1 C            0.0280    -0.1220    -0.0050 ca         1 0TI      -0.126000
      2 F           -2.0590    -0.0820     1.1510 f          1 0TI      -0.137900
      3 N            3.4540     0.1340     1.4980 ns         1 0TI      -0.467100
      4 O            4.7710     0.2010     3.4370 o          1 0TI      -0.595500
      5 C1           1.4250    -0.0790     0.0070 ca         1 0TI      -0.143000
      6 O1           2.1080    -0.6820     4.5590 oh         1 0TI      -0.566800
      7 C2           2.0740     0.0580     1.2320 ca         1 0TI       0.047600
      8 C3           1.3190     0.1570     2.4490 ca         1 0TI      -0.121300
      9 C4          -0.0540     0.1060     2.4390 ca         1 0TI      -0.088000
     10 C5          -0.7050    -0.0330     1.1880 ca         1 0TI       0.090900
     11 C6           2.2830     0.3290     3.5960 c3         1 0TI       0.131400
     12 C7           3.6670     0.2100     2.8840 c          1 0TI       0.663500
     13 H           -0.5070    -0.2290    -0.9610 ha         1 0TI       0.153000
     14 HN           4.1510    -0.0720     0.8300 hn         1 0TI       0.341500
     15 H1           1.9870    -0.1540    -0.9340 ha         1 0TI       0.148000
     16 HO1          2.8740    -0.6350     5.1500 ho         1 0TI       0.424000
     17 H4          -0.6420     0.1620     3.3670 ha         1 0TI       0.164000
     18 H6           2.1990     1.3470     4.0660 h1         1 0TI       0.082700
@<TRIPOS>BOND
     1     1     5 ar  
     2     1    10 ar  
     3     1    13 1   
     4     2    10 1   
     5     3     7 1   
     6     3    12 1   
     7     3    14 1   
     8     4    12 2   
     9     5     7 ar  
    10     5    15 1   
    11     6    11 1   
    12     6    16 1   
    13     7     8 ar  
    14     8     9 ar  
    15     8    11 1   
    16     9    10 ar  
    17     9    17 1   
    18    11    12 1   
    19    11    18 1   
@<TRIPOS>SUBSTRUCTURE
     1 0TI         1 TEMP              0 ****  ****    0 ROOT
