@<TRIPOS>MOLECULE
0TI
   18    19     1     0     0
SMALL
bcc


@<TRIPOS>ATOM
      1 C            0.0000     0.0000     0.0000 ca         1 0TI      -0.093000
      2 F           -2.0500    -0.0000     1.1890 f          1 0TI      -0.124900
      3 N            3.4520    -0.0010     1.4620 ns         1 0TI      -0.007100
      4 O            4.8230    -0.0020     3.2880 o          1 0TI      -0.630500
      5 C1           1.3790     0.0000     0.0000 ca         1 0TI      -0.098000
      6 O1           2.2640    -1.1780     4.3090 oh         1 0TI      -0.551800
      7 C2           2.0790     0.0000     1.2040 ca         1 0TI      -0.097400
      8 C3           1.3670    -0.0010     2.3970 ca         1 0TI      -0.147300
      9 C4          -0.0090    -0.0020     2.3970 ca         1 0TI      -0.054000
     10 C5          -0.7000    -0.0000     1.1950 ca         1 0TI       0.076900
     11 C6           2.3950    -0.0020     3.5060 c3         1 0TI       0.172400
     12 C7           3.7220    -0.0020     2.7780 c          1 0TI       0.595500
     13 H           -0.5390     0.0000    -0.9400 ha         1 0TI       0.120000
     14 HN           4.1540    -0.0000     0.7490 hn         1 0TI       0.178500
     15 H1           1.9190     0.0000    -0.9390 ha         1 0TI       0.111000
     16 HO1          2.2240    -0.9340     5.2190 ho         1 0TI       0.397000
     17 H4          -0.5510    -0.0020     3.3340 ha         1 0TI       0.120000
     18 H6           2.2970     0.8910     4.1120 h1         1 0TI       0.031700
@<TRIPOS>BOND
     1     1     5 ar  
     2     1    10 ar  
     3     1    13 1   
     4     2    10 1   
     5     3     7 1   
     6     3    12 1   
     7     3    14 1   
     8     4    12 2   
     9     5     7 ar  
    10     5    15 1   
    11     6    11 1   
    12     6    16 1   
    13     7     8 ar  
    14     8     9 ar  
    15     8    11 1   
    16     9    10 ar  
    17     9    17 1   
    18    11    12 1   
    19    11    18 1   
@<TRIPOS>SUBSTRUCTURE
     1 0TI         1 TEMP              0 ****  ****    0 ROOT
