@<TRIPOS>MOLECULE
molecule
   18    19     1     0     0
SMALL
bcc


@<TRIPOS>ATOM
      1 C            0.0000     0.0000     0.0000 ca         1 0TI      -0.126000
      2 F           -2.0500    -0.0000     1.1890 f          1 0TI      -0.136900
      3 N            3.4520    -0.0010     1.4620 ns         1 0TI      -0.460100
      4 O            4.8230    -0.0020     3.2880 o          1 0TI      -0.588500
      5 C1           1.3790     0.0000     0.0000 ca         1 0TI      -0.136000
      6 O1           2.2640    -1.1780     4.3090 oh         1 0TI      -0.567800
      7 C2           2.0790     0.0000     1.2040 ca         1 0TI       0.052600
      8 C3           1.3670    -0.0010     2.3970 ca         1 0TI      -0.134300
      9 C4          -0.0090    -0.0020     2.3970 ca         1 0TI      -0.099000
     10 C5          -0.7000    -0.0000     1.1950 ca         1 0TI       0.104900
     11 C6           2.3950    -0.0020     3.5060 c3         1 0TI       0.113400
     12 C7           3.7220    -0.0020     2.7780 c          1 0TI       0.703500
     13 H           -0.5390     0.0000    -0.9400 ha         1 0TI       0.152000
     14 HN           4.1540    -0.0000     0.7490 hn         1 0TI       0.341500
     15 H1           1.9190     0.0000    -0.9390 ha         1 0TI       0.141000
     16 HO1          2.2240    -0.9340     5.2190 ho         1 0TI       0.412000
     17 H4          -0.5510    -0.0020     3.3340 ha         1 0TI       0.151000
     18 H6           2.2970     0.8910     4.1120 h1         1 0TI       0.075700
@<TRIPOS>BOND
     1     1     5 ar  
     2     1    10 ar  
     3     2    10 1   
     4     3     7 1   
     5     3    12 1   
     6     4    12 2   
     7     5     7 ar  
     8     6    11 1   
     9     7     8 ar  
    10     8     9 ar  
    11     8    11 1   
    12     9    10 ar  
    13    11    12 1   
    14     1    13 1   
    15     3    14 1   
    16     5    15 1   
    17     6    16 1   
    18     9    17 1   
    19    11    18 1   
@<TRIPOS>SUBSTRUCTURE
     1 0TI         1 TEMP              0 ****  ****    0 ROOT
