@<TRIPOS>MOLECULE
molecule
   39    40     1     0     0
SMALL
bcc


@<TRIPOS>ATOM
      1 Br1          0.0000     0.0000     0.0000 br         1 0TJ      -0.032100
      2 CAM          1.8900     0.0000     0.0000 ca         1 0TJ       0.068100
      3 CAK          2.5820     0.0000     1.1920 ca         1 0TJ      -0.004900
      4 Br2          1.6310     0.0010     2.8280 br         1 0TJ      -0.037100
      5 CAL          3.9700    -0.0010     1.2010 ca         1 0TJ       0.028100
      6 Br3          4.8980    -0.0000     2.8490 br         1 0TJ      -0.036100
      7 CAN          4.6770    -0.0020     0.0170 ca         1 0TJ       0.019100
      8 Br4          6.5680    -0.0030     0.0420 br         1 0TJ      -0.072100
      9 CAP          3.9970    -0.0020    -1.1940 ca         1 0TJ      -0.054200
     10 CAO          2.5920    -0.0070    -1.2090 ca         1 0TJ       0.123400
     11 NAI          2.2100    -0.0070    -2.5120 nc         1 0TJ      -0.581100
     12 CAG          3.2630    -0.0020    -3.2770 cd         1 0TJ       0.460700
     13 N            4.3920    -0.0040    -2.5180 na         1 0TJ      -0.130300
     14 CA           5.7710    -0.0010    -3.0120 c3         1 0TJ      -0.039700
     15 C            6.2870    -1.4150    -3.0700 c          1 0TJ       0.634100
     16 O            5.5740    -2.3350    -2.7320 o          1 0TJ      -0.575100
     17 NAA          7.5430    -1.6580    -3.4980 ns         1 0TJ      -0.585900
     18 H1           3.2430     0.0020    -4.3600 h5         1 0TJ       0.082800
     19 H2           5.7980     0.4350    -4.0040 h1         1 0TJ       0.088700
     20 H3           6.3930     0.5840    -2.3440 h1         1 0TJ       0.088700
     21 H4           8.1270    -0.8990    -3.7900 hn         1 0TJ       0.312500
     22 C1           8.0450    -3.0330    -3.5540 c3         1 0TJ       0.113000
     23 C2           9.4850    -3.0290    -4.0710 c3         1 0TJ      -0.101400
     24 C3          10.0090    -4.4650    -4.1290 c3         1 0TJ      -0.076400
     25 C4          11.4490    -4.4610    -4.6460 c3         1 0TJ      -0.075400
     26 C5          11.9740    -5.8980    -4.7040 c3         1 0TJ      -0.204400
     27 H5           7.4230    -3.6170    -4.2210 h1         1 0TJ       0.059200
     28 H6           8.0180    -3.4670    -2.5620 h1         1 0TJ       0.059200
     29 H7          10.1070    -2.4440    -3.4040 hc         1 0TJ       0.046700
     30 H8           9.5110    -2.5940    -5.0630 hc         1 0TJ       0.046700
     31 H9           9.9820    -4.9000    -3.1380 hc         1 0TJ       0.050200
     32 H10          9.3880    -5.0500    -4.7970 hc         1 0TJ       0.050200
     33 H11         11.4760    -4.0260    -5.6370 hc         1 0TJ       0.046200
     34 H12         12.0710    -3.8760    -3.9780 hc         1 0TJ       0.046200
     35 H13         11.9480    -6.3320    -3.7120 hc         1 0TJ       0.070200
     36 H14         11.3520    -6.4820    -5.3710 hc         1 0TJ       0.070200
     37 C6          13.3930    -5.8930    -5.2140 c          1 0TJ       0.566900
     38 O1          14.2670    -6.4180    -4.5660 o          1 0TJ      -0.517100
     39 H15         13.6170    -5.4720    -6.1860 h4         1 0TJ      -0.005800
@<TRIPOS>BOND
     1    16    15 2   
     2    12    11 2   
     3    12    13 1   
     4    11    10 1   
     5    14    15 1   
     6    14    13 1   
     7    15    17 1   
     8    13     9 1   
     9    10     9 ar  
    10    10     2 ar  
    11     9     7 ar  
    12     1     2 1   
    13     2     3 ar  
    14     7     8 1   
    15     7     5 ar  
    16     3     5 ar  
    17     3     4 1   
    18     5     6 1   
    19    12    18 1   
    20    14    19 1   
    21    14    20 1   
    22    17    21 1   
    23    17    22 1   
    24    22    23 1   
    25    23    24 1   
    26    24    25 1   
    27    25    26 1   
    28    22    27 1   
    29    22    28 1   
    30    23    29 1   
    31    23    30 1   
    32    24    31 1   
    33    24    32 1   
    34    25    33 1   
    35    25    34 1   
    36    26    35 1   
    37    26    36 1   
    38    26    37 1   
    39    37    38 2   
    40    37    39 1   
@<TRIPOS>SUBSTRUCTURE
     1 0TJ         1 TEMP              0 ****  ****    0 ROOT
