@<TRIPOS>MOLECULE
0TJ
   39    40     1     0     0
SMALL
bcc


@<TRIPOS>ATOM
      1 Br1          0.0000     0.0000     0.0000 br         1 0TJ      -0.069100
      2 CAM          1.8900     0.0000     0.0000 ca         1 0TJ       0.108100
      3 CAK          2.5820     0.0000     1.1920 ca         1 0TJ       0.029100
      4 Br2          1.6310     0.0010     2.8280 br         1 0TJ      -0.069100
      5 CAL          3.9700    -0.0010     1.2010 ca         1 0TJ       0.060100
      6 Br3          4.8980    -0.0000     2.8490 br         1 0TJ      -0.069100
      7 CAN          4.6770    -0.0020     0.0170 ca         1 0TJ       0.077100
      8 Br4          6.5680    -0.0030     0.0420 br         1 0TJ      -0.113100
      9 CAP          3.9970    -0.0020    -1.1940 ca         1 0TJ      -0.226200
     10 CAO          2.5920    -0.0070    -1.2090 ca         1 0TJ       0.090400
     11 NAI          2.2100    -0.0070    -2.5120 nc         1 0TJ      -0.498100
     12 CAG          3.2630    -0.0020    -3.2770 cd         1 0TJ       0.278700
     13 N            4.3920    -0.0040    -2.5180 na         1 0TJ       0.344700
     14 CA           5.7710    -0.0010    -3.0120 c3         1 0TJ      -0.121700
     15 C            6.2870    -1.4150    -3.0700 c          1 0TJ       0.547100
     16 O            5.5740    -2.3350    -2.7320 o          1 0TJ      -0.619100
     17 NAA          7.5430    -1.6580    -3.4980 ns         1 0TJ      -0.187900
     18 H1           3.2430     0.0020    -4.3600 h5         1 0TJ       0.029800
     19 H2           5.7980     0.4350    -4.0040 h1         1 0TJ       0.054700
     20 H3           6.3930     0.5840    -2.3440 h1         1 0TJ       0.054700
     21 H4           8.1270    -0.8990    -3.7900 hn         1 0TJ       0.173500
     22 C1           8.0450    -3.0330    -3.5540 c3         1 0TJ       0.049000
     23 C2           9.4850    -3.0290    -4.0710 c3         1 0TJ      -0.042400
     24 C3          10.0090    -4.4650    -4.1290 c3         1 0TJ      -0.021400
     25 C4          11.4490    -4.4610    -4.6460 c3         1 0TJ      -0.015400
     26 C5          11.9740    -5.8980    -4.7040 c3         1 0TJ      -0.158400
     27 H5           7.4230    -3.6170    -4.2210 h1         1 0TJ       0.031700
     28 H6           8.0180    -3.4670    -2.5620 h1         1 0TJ       0.031700
     29 H7          10.1070    -2.4440    -3.4040 hc         1 0TJ       0.017200
     30 H8           9.5110    -2.5940    -5.0630 hc         1 0TJ       0.017200
     31 H9           9.9820    -4.9000    -3.1380 hc         1 0TJ       0.021700
     32 H10          9.3880    -5.0500    -4.7970 hc         1 0TJ       0.021700
     33 H11         11.4760    -4.0260    -5.6370 hc         1 0TJ       0.015700
     34 H12         12.0710    -3.8760    -3.9780 hc         1 0TJ       0.015700
     35 H13         11.9480    -6.3320    -3.7120 hc         1 0TJ       0.039700
     36 H14         11.3520    -6.4820    -5.3710 hc         1 0TJ       0.039700
     37 C6          13.3930    -5.8930    -5.2140 c          1 0TJ       0.652900
     38 O1          14.2670    -6.4180    -4.5660 o          1 0TJ      -0.550100
     39 H15         13.6170    -5.4720    -6.1860 h4         1 0TJ      -0.041800
@<TRIPOS>BOND
     1     1     2 1   
     2     2     3 ar  
     3     2    10 ar  
     4     3     4 1   
     5     3     5 ar  
     6     5     6 1   
     7     5     7 ar  
     8     7     8 1   
     9     7     9 ar  
    10     9    10 ar  
    11     9    13 1   
    12    10    11 1   
    13    11    12 2   
    14    12    13 1   
    15    12    18 1   
    16    13    14 1   
    17    14    15 1   
    18    14    19 1   
    19    14    20 1   
    20    15    16 2   
    21    15    17 1   
    22    17    21 1   
    23    17    22 1   
    24    22    23 1   
    25    22    27 1   
    26    22    28 1   
    27    23    24 1   
    28    23    29 1   
    29    23    30 1   
    30    24    25 1   
    31    24    31 1   
    32    24    32 1   
    33    25    26 1   
    34    25    33 1   
    35    25    34 1   
    36    26    35 1   
    37    26    36 1   
    38    26    37 1   
    39    37    38 2   
    40    37    39 1   
@<TRIPOS>SUBSTRUCTURE
     1 0TJ         1 TEMP              0 ****  ****    0 ROOT
