@<TRIPOS>MOLECULE
molecule
   47    49     1     0     0
SMALL
bcc


@<TRIPOS>ATOM
      1 C14          0.0000     0.0000     0.0000 c3         1 0TM       0.106700
      2 O1           1.4290     0.0000     0.0000 os         1 0TM      -0.286900
      3 C5           2.0460     0.0000     1.2120 ca         1 0TM       0.131100
      4 C4           1.2930    -0.0010     2.3710 ca         1 0TM      -0.161000
      5 C6           3.4380    -0.0060     1.2840 ca         1 0TM       0.085100
      6 O2           4.1760    -0.0090     0.1440 os         1 0TM      -0.280900
      7 C17          5.5980    -0.0150     0.2910 c3         1 0TM       0.072700
      8 C1           4.0710    -0.0060     2.5190 ca         1 0TM      -0.201000
      9 C2           3.3250    -0.0020     3.6800 ca         1 0TM       0.099400
     10 Cl           4.1190    -0.0040     5.2230 cl         1 0TM      -0.087400
     11 C3           1.9300    -0.0020     3.6130 cp         1 0TM      -0.163500
     12 C7           1.1270    -0.0040     4.8570 cp         1 0TM       0.595800
     13 N1           1.3030    -0.9470     5.7800 nb         1 0TM      -0.705000
     14 C9           0.1690     0.9910     5.0940 ca         1 0TM      -0.333400
     15 C12         -0.3110     2.1710     4.3580 cc         1 0TM      -0.027900
     16 C13          0.1440     2.6280     3.0800 cg         1 0TM       0.223500
     17 N4           0.4870     2.9890     2.0590 n1         1 0TM      -0.360800
     18 C11         -1.2750     2.7420     5.1350 cd         1 0TM      -0.148100
     19 N3          -1.4290     2.0210     6.2780 na         1 0TM      -0.279100
     20 C10         -0.5700     0.9520     6.2900 ca         1 0TM       0.571800
     21 N2          -0.3320    -0.0320     7.1530 nb         1 0TM      -0.801000
     22 C8           0.5860    -0.9500     6.8960 ca         1 0TM       0.798300
     23 S            0.8640    -2.2250     8.0800 ss         1 0TM      -0.147400
     24 C15         -0.3420    -1.7500     9.3440 c3         1 0TM      -0.143300
     25 C16         -0.2800    -2.7270    10.4890 c          1 0TM       0.710100
     26 O3           0.5000    -3.6540    10.4540 o          1 0TM      -0.590100
     27 N5          -1.0940    -2.5710    11.5510 n          1 0TM      -0.403800
     28 C18         -1.0360    -3.5220    12.6650 c3         1 0TM      -0.004700
     29 C19         -2.0380    -1.4510    11.5930 c3         1 0TM      -0.004700
     30 H1          -0.5290     0.2430    -0.9130 h1         1 0TM       0.041367
     31 H2          -0.7180     0.3290     0.7420 h1         1 0TM       0.041367
     32 H3          -0.0450    -1.0820    -0.0230 h1         1 0TM       0.041367
     33 H4           0.2190     0.0720     2.4920 ha         1 0TM       0.155000
     34 H5           5.8850    -0.2510    -0.7260 h1         1 0TM       0.056033
     35 H6           6.3470    -0.7000     0.6690 h1         1 0TM       0.056033
     36 H7           5.8600     1.0320     0.3880 h1         1 0TM       0.056033
     37 H8           4.9700     0.2260     1.9620 ha         1 0TM       0.185000
     38 H9          -1.9140     3.5230     4.7430 h4         1 0TM       0.189000
     39 H10         -2.3120     2.4860     6.3480 hn         1 0TM       0.344700
     40 H11          0.1610    -0.8220     9.5900 h1         1 0TM       0.105700
     41 H12         -1.1310    -1.1830     8.8640 h1         1 0TM       0.105700
     42 H13         -0.1440    -2.9500    12.8860 h1         1 0TM       0.059200
     43 H14         -0.7860    -3.6750    13.7080 h1         1 0TM       0.059200
     44 H15         -0.1260    -4.0620    12.4340 h1         1 0TM       0.059200
     45 H16         -3.0790    -1.7490    11.6140 h1         1 0TM       0.059200
     46 H17         -1.7260    -1.1230    10.6090 h1         1 0TM       0.059200
     47 H18         -2.1850    -0.5520    12.1790 h1         1 0TM       0.059200
@<TRIPOS>BOND
     1    17    16 3
     2    16    15 1
     3    18    15 2
     4    18    19 1
     5    15    14 1
     6     6     7 1
     7     6     5 1
     8     1     2 1
     9     2     3 1
    10     5     3 ar
    11     5     8 ar
    12     3     4 ar
    13     8     9 ar
    14    19    20 1
    15     4    11 ar
    16    14    20 ar
    17    14    12 ar
    18     9    11 ar
    19     9    10 1
    20    11    12 1
    21    20    21 ar
    22    12    13 ar
    23    21    22 ar
    24    13    22 ar
    25    22    23 1
    26    26    25 2
    27    29    27 1
    28    25    27 1
    29    25    24 1
    30    27    28 1
    31    23    24 1
    32     1    30 1
    33     1    31 1
    34     1    32 1
    35     4    33 1
    36     7    34 1
    37     7    35 1
    38     7    36 1
    39     8    37 1
    40    18    38 1
    41    19    39 1
    42    24    40 1
    43    24    41 1
    44    28    42 1
    45    28    43 1
    46    28    44 1
    47    29    45 1
    48    29    46 1
    49    29    47 1
@<TRIPOS>SUBSTRUCTURE
     1 0TM         1 TEMP              0 ****  ****    0 ROOT
