@<TRIPOS>MOLECULE
0TM
   48    50     1     0     0
SMALL
bcc


@<TRIPOS>ATOM
      1 C14          0.8640     1.3770    -0.3940 c3         1 0TM       0.114700
      2 O1           0.6830     0.1180     0.2640 os         1 0TM      -0.341900
      3 C5           1.5500    -0.1220     1.3120 ca         1 0TM       0.074100
      4 C4           0.9840    -0.3610     2.5650 ca         1 0TM      -0.108000
      5 C6           2.9510    -0.2590     1.1350 ca         1 0TM       0.130100
      6 O2           3.4310     0.0010    -0.1250 os         1 0TM      -0.313900
      7 C17          4.8500     0.0740    -0.2660 c3         1 0TM       0.104700
      8 C1           3.7500    -0.6640     2.2100 ca         1 0TM      -0.189000
      9 C2           3.1630    -0.9330     3.4510 ca         1 0TM       0.056400
     10 Cl           4.1560    -1.4750     4.7160 cl         1 0TM      -0.060400
     11 C3           1.7850    -0.7680     3.6390 cp         1 0TM      -0.202500
     12 C7           1.1420    -1.0190     4.9440 cp         1 0TM       0.578800
     13 N1           0.4440    -2.1650     5.1040 nb         1 0TM      -0.788000
     14 C9           1.2320    -0.0800     5.9930 ca         1 0TM      -0.260400
     15 C12          1.8220     1.2160     6.2180 cc         1 0TM      -0.011900
     16 C13          2.5580     1.9830     5.3030 cg         1 0TM       0.215500
     17 N4           3.1660     2.6220     4.5440 n1         1 0TM      -0.339800
     18 C11          1.5180     1.5910     7.5360 cd         1 0TM      -0.023100
     19 N3           0.7630     0.6020     8.1590 na         1 0TM      -0.262100
     20 C10          0.5590    -0.4390     7.2450 ca         1 0TM       0.457800
     21 N2          -0.1370    -1.5990     7.4220 nb         1 0TM      -0.650000
     22 C8          -0.1590    -2.3930     6.3200 ca         1 0TM       0.706300
     23 S           -1.1000    -3.8420     6.4890 ss         1 0TM      -0.074400
     24 C15         -0.7700    -4.7440     5.0240 c3         1 0TM      -0.142300
     25 C16         -1.2390    -4.1060     3.7520 c          1 0TM       0.568100
     26 O3          -2.1150    -3.2780     3.5770 o          1 0TM      -0.388100
     27 N5          -0.5250    -4.6030     2.4890 nx         1 0TM      -0.591200
     28 C18          0.7620    -3.8820     2.3160 c3         1 0TM       0.083100
     29 C19         -1.3820    -4.4500     1.2860 c3         1 0TM       0.083100
     30 H1           1.8640     1.4170    -0.8890 h1         1 0TM       0.056033
     31 H2           0.7490     2.2140     0.3350 h1         1 0TM       0.056033
     32 H3           0.0410     1.3880    -1.1520 h1         1 0TM       0.056033
     33 H4          -0.1000    -0.2160     2.7000 ha         1 0TM       0.162000
     34 H5           4.9810     0.4010    -1.3300 h1         1 0TM       0.058700
     35 H6           5.3080    -0.9310    -0.1020 h1         1 0TM       0.058700
     36 H7           5.2800     0.8270     0.4370 h1         1 0TM       0.058700
     37 H8           4.8390    -0.7700     2.0890 ha         1 0TM       0.170000
     38 H9           1.7950     2.5060     8.0720 h4         1 0TM       0.202000
     39 H10          0.4190     0.6240     9.0870 hn         1 0TM       0.334700
     40 H11          0.3220    -4.9960     4.9550 h1         1 0TM       0.128700
     41 H12         -1.3410    -5.7070     5.1640 h1         1 0TM       0.128700
     42 H13          0.5680    -2.7720     2.2570 hx         1 0TM       0.110033
     43 H14          1.4270    -4.0880     3.1970 hx         1 0TM       0.110033
     44 H15          1.2590    -4.2280     1.3710 hx         1 0TM       0.110033
     45 H16         -1.6150    -3.3620     1.1280 hx         1 0TM       0.110033
     46 H17         -0.8390    -4.8540     0.3900 hx         1 0TM       0.110033
     47 H18         -2.3410    -5.0120     1.4410 hx         1 0TM       0.110033
     48 H51         -0.3230    -5.6010     2.6200 hn         1 0TM       0.443800
@<TRIPOS>BOND
     1     1     2 1   
     2     1    30 1   
     3     1    31 1   
     4     1    32 1   
     5     2     3 1   
     6     3     4 ar  
     7     3     5 ar  
     8     4    11 ar  
     9     4    33 1   
    10     5     6 1   
    11     5     8 ar  
    12     6     7 1   
    13     7    34 1   
    14     7    35 1   
    15     7    36 1   
    16     8     9 ar  
    17     8    37 1   
    18     9    10 1   
    19     9    11 ar  
    20    11    12 1   
    21    12    13 ar  
    22    12    14 ar  
    23    13    22 ar  
    24    14    15 1   
    25    14    20 ar  
    26    15    16 1   
    27    15    18 2   
    28    16    17 3   
    29    18    19 1   
    30    18    38 1   
    31    19    20 1   
    32    19    39 1   
    33    20    21 ar  
    34    21    22 ar  
    35    22    23 1   
    36    23    24 1   
    37    24    25 1   
    38    24    40 1   
    39    24    41 1   
    40    25    26 2   
    41    25    27 1   
    42    27    28 1   
    43    27    29 1   
    44    27    48 1   
    45    28    42 1   
    46    28    43 1   
    47    28    44 1   
    48    29    45 1   
    49    29    46 1   
    50    29    47 1   
@<TRIPOS>SUBSTRUCTURE
     1 0TM         1 TEMP              0 ****  ****    0 ROOT
