@<TRIPOS>MOLECULE
0TO
   36    38     1     0     0
SMALL
bcc


@<TRIPOS>ATOM
      1 C21         -0.0030    -0.2710    -0.2730 ca         1 0TO      -0.137000
      2 C20          1.2780     0.2860    -0.2630 ca         1 0TO       0.031400
      3 Cl           2.0050     0.7390    -1.7330 cl         1 0TO      -0.091400
      4 C18          1.9750     0.4870     0.9300 ca         1 0TO      -0.108000
      5 C19         -0.5910    -0.6340     0.9360 ca         1 0TO      -0.104000
      6 C17          0.0830    -0.4540     2.1390 ca         1 0TO      -0.170000
      7 C7           1.3790     0.1110     2.1510 ca         1 0TO       0.144600
      8 N6           2.0150     0.3680     3.3870 nu         1 0TO      -0.726300
      9 C4           3.3170    -0.0500     3.6830 ca         1 0TO       0.702200
     10 N5           4.0890    -0.6330     2.7380 nb         1 0TO      -0.768000
     11 C8           5.3670    -0.9720     3.1100 ca         1 0TO       0.674900
     12 N9           5.9530    -0.8190     4.2960 nb         1 0TO      -0.719000
     13 C2           3.8400     0.1990     5.0290 ca         1 0TO      -0.304600
     14 C1           5.1830    -0.2240     5.2810 ca         1 0TO       0.462600
     15 C3           3.1070     0.8330     6.0570 ca         1 0TO      -0.088000
     16 C10          3.6590     1.0120     7.3090 ca         1 0TO       0.074100
     17 O11          2.8480     1.5170     8.3110 os         1 0TO      -0.329900
     18 C14          3.2710     2.7760     8.8350 c3         1 0TO       0.114700
     19 C12          4.9970     0.5730     7.5740 ca         1 0TO       0.136100
     20 C15          5.7430    -0.0260     6.5800 ca         1 0TO      -0.263300
     21 O13          5.4490     0.8100     8.8530 os         1 0TO      -0.319900
     22 C16          6.7460     0.3070     9.1680 c3         1 0TO       0.108700
     23 H1          -0.5400    -0.4230    -1.2210 ha         1 0TO       0.149000
     24 H2           2.9820     0.9330     0.9070 ha         1 0TO       0.168000
     25 H3          -1.6000    -1.0740     0.9410 ha         1 0TO       0.139000
     26 H4          -0.4050    -0.7540     3.0790 ha         1 0TO       0.134000
     27 H5           1.3960     0.3770     4.1710 hn         1 0TO       0.433800
     28 H6           5.9710    -1.4440     2.3050 h5         1 0TO       0.055100
     29 H7           2.0820     1.2000     5.8950 ha         1 0TO       0.148000
     30 H8           3.2800     3.5480     8.0290 h1         1 0TO       0.046367
     31 H9           4.2800     2.6880     9.3050 h1         1 0TO       0.046367
     32 H10          2.4930     3.0110     9.6040 h1         1 0TO       0.046367
     33 H11          6.7740    -0.3650     6.7630 ha         1 0TO       0.163000
     34 H12          6.8670     0.5710    10.2490 h1         1 0TO       0.051033
     35 H13          7.5230     0.8140     8.5460 h1         1 0TO       0.051033
     36 H14          6.7850    -0.8000     9.0230 h1         1 0TO       0.051033
@<TRIPOS>BOND
     1     1     2 ar  
     2     1     5 ar  
     3     1    23 1   
     4     2     3 1   
     5     2     4 ar  
     6     4     7 ar  
     7     4    24 1   
     8     5     6 ar  
     9     5    25 1   
    10     6     7 ar  
    11     6    26 1   
    12     7     8 1   
    13     8     9 1   
    14     8    27 1   
    15     9    10 ar  
    16     9    13 ar  
    17    10    11 ar  
    18    11    12 ar  
    19    11    28 1   
    20    12    14 ar  
    21    13    14 ar  
    22    13    15 ar  
    23    14    20 ar  
    24    15    16 ar  
    25    15    29 1   
    26    16    17 1   
    27    16    19 ar  
    28    17    18 1   
    29    18    30 1   
    30    18    31 1   
    31    18    32 1   
    32    19    20 ar  
    33    19    21 1   
    34    20    33 1   
    35    21    22 1   
    36    22    34 1   
    37    22    35 1   
    38    22    36 1   
@<TRIPOS>SUBSTRUCTURE
     1 0TO         1 TEMP              0 ****  ****    0 ROOT
