@<TRIPOS>MOLECULE
0TO
   36    38     1     0     0
SMALL
bcc


@<TRIPOS>ATOM
      1 C21          0.0000     0.0000     0.0000 ca         1 0TO      -0.117000
      2 C20          1.3850     0.0000     0.0000 ca         1 0TO      -0.011600
      3 Cl           2.2520     0.0010    -1.5040 cl         1 0TO      -0.026400
      4 C18          2.0760     0.0000     1.1960 ca         1 0TO      -0.105000
      5 C19         -0.6940    -0.0010     1.1950 ca         1 0TO      -0.070000
      6 C17         -0.0080    -0.0080     2.3940 ca         1 0TO      -0.140000
      7 C7           1.3810    -0.0010     2.3990 ca         1 0TO       0.004600
      8 N6           2.0770    -0.0020     3.6100 nu         1 0TO      -0.286300
      9 C4           3.2930     0.6450     3.7080 ca         1 0TO       0.538200
     10 N5           3.7630     1.3690     2.7000 nb         1 0TO      -0.718000
     11 C8           4.9260     1.9940     2.7810 ca         1 0TO       0.675900
     12 N9           5.6890     1.9450     3.8470 nb         1 0TO      -0.674000
     13 C2           4.0680     0.5590     4.8890 ca         1 0TO      -0.307600
     14 C1           5.3100     1.2420     4.9240 ca         1 0TO       0.452600
     15 C3           3.6450    -0.1790     6.0010 ca         1 0TO      -0.173000
     16 C10          4.4300    -0.2310     7.1170 ca         1 0TO       0.126100
     17 O11          4.0180    -0.9470     8.1970 os         1 0TO      -0.289900
     18 C14          2.7590    -1.6150     8.0900 c3         1 0TO       0.241700
     19 C12          5.6570     0.4470     7.1610 ca         1 0TO       0.166100
     20 C15          6.1020     1.1690     6.0770 ca         1 0TO      -0.259300
     21 O13          6.4200     0.3800     8.2830 os         1 0TO      -0.291900
     22 C16          7.6600     1.0920     8.2680 c3         1 0TO       0.239700
     23 H1          -0.5400     0.0060    -0.9390 ha         1 0TO       0.115000
     24 H2           3.1590     0.0030     1.1960 ha         1 0TO       0.150000
     25 H3          -1.7780    -0.0040     1.1920 ha         1 0TO       0.105000
     26 H4          -0.5530    -0.0090     3.3300 ha         1 0TO       0.106000
     27 H5           1.6880    -0.4600     4.4110 hn         1 0TO       0.289800
     28 H6           5.2630     2.5720     1.9290 h5         1 0TO      -0.004900
     29 H7           2.7490    -0.7850     5.9400 ha         1 0TO       0.123000
     30 H8           1.9810    -0.8890     7.8860 h1         1 0TO      -0.002633
     31 H9           2.5420    -2.1260     9.0200 h1         1 0TO      -0.002633
     32 H10          2.8010    -2.3360     7.2830 h1         1 0TO      -0.002633
     33 H11          7.0510     1.6900     6.1200 ha         1 0TO       0.143000
     34 H12          8.1640     0.9600     9.2180 h1         1 0TO       0.001700
     35 H13          8.2870     0.7090     7.4710 h1         1 0TO       0.001700
     36 H14          7.4700     2.1460     8.1030 h1         1 0TO       0.001700
@<TRIPOS>BOND
     1     1     2 ar  
     2     1     5 ar  
     3     1    23 1   
     4     2     3 1   
     5     2     4 ar  
     6     4     7 ar  
     7     4    24 1   
     8     5     6 ar  
     9     5    25 1   
    10     6     7 ar  
    11     6    26 1   
    12     7     8 1   
    13     8     9 1   
    14     8    27 1   
    15     9    10 ar  
    16     9    13 ar  
    17    10    11 ar  
    18    11    12 ar  
    19    11    28 1   
    20    12    14 ar  
    21    13    14 ar  
    22    13    15 ar  
    23    14    20 ar  
    24    15    16 ar  
    25    15    29 1   
    26    16    17 1   
    27    16    19 ar  
    28    17    18 1   
    29    18    30 1   
    30    18    31 1   
    31    18    32 1   
    32    19    20 ar  
    33    19    21 1   
    34    20    33 1   
    35    21    22 1   
    36    22    34 1   
    37    22    35 1   
    38    22    36 1   
@<TRIPOS>SUBSTRUCTURE
     1 0TO         1 TEMP              0 ****  ****    0 ROOT
