@<TRIPOS>MOLECULE
molecule
   46    49     1     0     0
SMALL
bcc


@<TRIPOS>ATOM
      1 C1           0.0000     0.0000     0.0000 c3         1 0TP       0.136900
      2 N1          -4.7120    -8.7210     7.2430 nb         1 0TP      -0.776000
      3 O1           1.4300     0.0000     0.0000 os         1 0TP      -0.422600
      4 S1          -0.8770    -6.8170     5.8700 ss         1 0TP       0.028500
      5 C2          -0.0090    -4.2860     4.1550 ca         1 0TP      -0.091500
      6 O2          -0.0480    -9.1420     7.4060 o          1 0TP      -0.614100
      7 C3           2.0060     0.0000     1.3100 c3         1 0TP       0.136900
      8 N3          -1.2420   -10.6850     8.4670 ns         1 0TP      -0.586900
      9 C4           1.5210    -1.2330     2.0750 c3         1 0TP       0.125300
     10 N4           0.0510    -1.2350     2.1130 nh         1 0TP      -0.595000
     11 C5          -1.7990    -2.4990     3.0050 ca         1 0TP      -0.163000
     12 C6          -0.5050    -1.2340     0.7530 c3         1 0TP       0.125300
     13 C7          -3.1850    -5.8750     5.2990 cc         1 0TP      -0.119200
     14 C8          -3.4470    -7.0560     6.0960 ca         1 0TP      -0.258100
     15 C9          -2.2670    -7.6920     6.4920 ca         1 0TP       0.071900
     16 C10         -4.6800    -7.6240     6.5090 ca         1 0TP       0.759200
     17 C11         -2.3600    -8.8670     7.2790 ca         1 0TP      -0.299900
     18 C12         -1.1430    -9.5690     7.7190 c          1 0TP       0.682700
     19 C13         -3.6170    -9.3460     7.6310 ca         1 0TP       0.498200
     20 C14         -1.8930    -5.6170     5.0930 cd         1 0TP      -0.008600
     21 C15         -0.0310   -11.3840     8.9050 c3         1 0TP       0.105300
     22 C16         -1.3850    -4.4700     4.3130 ca         1 0TP      -0.047800
     23 C17          0.4620    -3.2160     3.4270 ca         1 0TP      -0.163000
     24 C18         -0.4290    -2.3190     2.8500 ca         1 0TP       0.108600
     25 C19         -2.2780    -3.5680     3.7320 ca         1 0TP      -0.091500
     26 H1          -0.3600    -0.0280    -1.0210 h1         1 0TP       0.055950
     27 H1A         -0.3610     0.8950     0.4920 h1         1 0TP       0.055950
     28 H2           0.6860    -4.9850     4.6040 ha         1 0TP       0.135500
     29 HN2         -5.9090    -6.0260     6.0290 hn         1 0TP       0.443800
     30 HN2A        -6.6920    -7.5730     6.0130 hn         1 0TP       0.443800
     31 H3           3.0860    -0.0280     1.2290 h1         1 0TP       0.055950
     32 H3A          1.7000     0.8950     1.8380 h1         1 0TP       0.055950
     33 HN3         -2.1440   -11.0590     8.6890 hn         1 0TP       0.311500
     34 H4           1.9070    -1.2050     3.0860 h1         1 0TP       0.052450
     35 H4A          1.8690    -2.1280     1.5740 h1         1 0TP       0.052450
     36 H5          -2.4910    -1.7980     2.5540 ha         1 0TP       0.139000
     37 H6          -1.5870    -1.2060     0.8060 h1         1 0TP       0.052450
     38 H6A         -0.1860    -2.1300     0.2320 h1         1 0TP       0.052450
     39 H7          -3.9760    -5.2500     4.9020 ha         1 0TP       0.144000
     40 H13         -3.6990   -10.2430     8.2330 h4         1 0TP       0.018100
     41 H15          0.5370   -11.7000     8.0390 h1         1 0TP       0.042367
     42 H15A        -0.3070   -12.2520     9.4920 h1         1 0TP       0.042367
     43 H15B         0.5720   -10.7170     9.5090 h1         1 0TP       0.042367
     44 H17          1.5290    -3.0730     3.3040 ha         1 0TP       0.139000
     45 H19         -3.3450    -3.7070     3.8530 ha         1 0TP       0.135500
     46 N2          -5.8660    -7.0200     6.1350 nv         1 0TP      -1.010500
@<TRIPOS>BOND
     1     1     3 1   
     2     1    12 1   
     3     2    16 ar  
     4     2    19 ar  
     5     3     7 1   
     6     4    15 1   
     7     4    20 1   
     8     5    22 ar  
     9     5    23 ar  
    10    46    16 1   
    11     6    18 2   
    12     7     9 1   
    13     8    18 1   
    14     8    21 1   
    15     9    10 1   
    16    10    12 1   
    17    10    24 1   
    18    11    24 ar  
    19    11    25 ar  
    20    13    14 1   
    21    13    20 2   
    22    14    15 ar  
    23    14    16 ar  
    24    15    17 ar  
    25    17    18 1   
    26    17    19 ar  
    27    20    22 1   
    28    22    25 ar  
    29    23    24 ar  
    30     1    26 1   
    31     1    27 1   
    32     5    28 1   
    33    46    29 1   
    34    46    30 1   
    35     7    31 1   
    36     7    32 1   
    37     8    33 1   
    38     9    34 1   
    39     9    35 1   
    40    11    36 1   
    41    12    37 1   
    42    12    38 1   
    43    13    39 1   
    44    19    40 1   
    45    21    41 1   
    46    21    42 1   
    47    21    43 1   
    48    23    44 1   
    49    25    45 1   
@<TRIPOS>SUBSTRUCTURE
     1 0TP         1 TEMP              0 ****  ****    0 ROOT
