@<TRIPOS>MOLECULE
0TP
   47    50     1     0     0
SMALL
bcc


@<TRIPOS>ATOM
      1 C1          -0.2890     0.3520     0.4420 c3         1 0TP       0.093400
      2 N1          -5.4050    -2.9550    10.5890 nb         1 0TP      -0.746000
      3 O1           1.1100     0.6040     0.4060 os         1 0TP      -0.402600
      4 S1          -2.4440    -0.6980     8.0800 ss         1 0TP       0.203500
      5 C2          -0.7290    -1.1470     5.5150 ca         1 0TP      -0.078500
      6 O2          -2.4810     0.9160    10.5960 o          1 0TP      -0.474100
      7 C3           1.7800     0.1800     1.5880 c3         1 0TP       0.093400
      8 N3          -3.7870     0.4830    12.4690 ny         1 0TP      -0.673800
      9 C4           1.5040    -1.3000     1.8810 c3         1 0TP       0.143800
     10 N4           0.0950    -1.6580     1.8970 nh         1 0TP      -0.626000
     11 C5          -1.8780    -2.2210     3.2150 ca         1 0TP      -0.170500
     12 C6          -0.5980    -1.1240     0.7310 c3         1 0TP       0.143800
     13 C7          -3.5960    -2.8050     7.2330 cc         1 0TP      -0.113200
     14 C8          -4.0920    -2.5710     8.5560 ca         1 0TP      -0.278100
     15 C9          -3.5130    -1.4100     9.1390 ca         1 0TP      -0.012100
     16 C10         -5.0470    -3.3480     9.3000 ca         1 0TP       0.793200
     17 C11         -3.8950    -1.0330    10.4590 ca         1 0TP      -0.389900
     18 C12         -3.3130     0.1340    11.0490 c          1 0TP       0.578700
     19 C13         -4.8480    -1.8690    11.1000 ca         1 0TP       0.532200
     20 C14         -2.6830    -1.8460     6.8550 cd         1 0TP      -0.023600
     21 C15         -3.1540     1.7040    13.0090 c3         1 0TP       0.086100
     22 C16         -1.9870    -1.7620     5.5960 ca         1 0TP      -0.098800
     23 C17         -0.0500    -1.0640     4.3070 ca         1 0TP      -0.170500
     24 C18         -0.6000    -1.6110     3.1230 ca         1 0TP       0.168600
     25 C19         -2.5500    -2.2920     4.4250 ca         1 0TP      -0.078500
     26 N2          -5.6110    -4.4600     8.7700 nv         1 0TP      -0.907500
     27 H1          -0.6460     0.6290    -0.5850 h1         1 0TP       0.058700
     28 H1A         -0.7690     1.0180     1.2070 h1         1 0TP       0.058700
     29 H2          -0.2690    -0.7210     6.4210 ha         1 0TP       0.131000
     30 HN2         -6.2700    -5.0010     9.2830 hn         1 0TP       0.465800
     31 HN2A        -5.3570    -4.7490     7.8550 hn         1 0TP       0.465800
     32 H3           2.8670     0.3390     1.3630 h1         1 0TP       0.058700
     33 H3A          1.4660     0.8270     2.4500 h1         1 0TP       0.058700
     34 HN3         -4.8040     0.6060    12.4420 hn         1 0TP       0.450800
     35 H4           1.9640    -1.9160     1.0530 h1         1 0TP       0.071450
     36 H4A          1.9980    -1.5970     2.8440 h1         1 0TP       0.071450
     37 H5          -2.3440    -2.6650     2.3200 ha         1 0TP       0.146500
     38 H6          -1.7100    -1.2440     0.8450 h1         1 0TP       0.071450
     39 H6A         -0.2610    -1.7440    -0.1490 h1         1 0TP       0.071450
     40 H7          -3.9000    -3.6480     6.6080 ha         1 0TP       0.165000
     41 H13         -5.2080    -1.6580    12.1270 h4         1 0TP       0.004100
     42 H15         -3.5460     1.8960    14.0430 hx         1 0TP       0.108700
     43 H15A        -3.3890     2.5740    12.3380 hx         1 0TP       0.108700
     44 H15B        -2.0390     1.5660    13.0370 hx         1 0TP       0.108700
     45 H17          0.9270    -0.5560     4.2880 ha         1 0TP       0.146500
     46 H19         -3.5400    -2.7720     4.4650 ha         1 0TP       0.131000
     47 H32         -3.5750    -0.3120    13.0780 hn         1 0TP       0.450800
@<TRIPOS>BOND
     1     1     3 1   
     2     1    12 1   
     3     1    27 1   
     4     1    28 1   
     5     2    16 ar  
     6     2    19 ar  
     7     3     7 1   
     8     4    15 1   
     9     4    20 1   
    10     5    22 ar  
    11     5    23 ar  
    12     5    29 1   
    13     6    18 2   
    14     7     9 1   
    15     7    32 1   
    16     7    33 1   
    17     8    18 1   
    18     8    21 1   
    19     8    34 1   
    20     8    47 1   
    21     9    10 1   
    22     9    35 1   
    23     9    36 1   
    24    10    12 1   
    25    10    24 1   
    26    11    24 ar  
    27    11    25 ar  
    28    11    37 1   
    29    12    38 1   
    30    12    39 1   
    31    13    14 1   
    32    13    20 2   
    33    13    40 1   
    34    14    15 ar  
    35    14    16 ar  
    36    15    17 ar  
    37    16    26 1   
    38    17    18 1   
    39    17    19 ar  
    40    19    41 1   
    41    20    22 1   
    42    21    42 1   
    43    21    43 1   
    44    21    44 1   
    45    22    25 ar  
    46    23    24 ar  
    47    23    45 1   
    48    25    46 1   
    49    26    30 1   
    50    26    31 1   
@<TRIPOS>SUBSTRUCTURE
     1 0TP         1 TEMP              0 ****  ****    0 ROOT
