@<TRIPOS>MOLECULE
0TR
   15    15     1     0     0
SMALL
bcc


@<TRIPOS>ATOM
      1 CA1          0.0920     0.1640    -0.0050 c          1 0TR       0.539500
      2 OA1         -0.4370     0.2570    -1.1350 o          1 0TR      -0.582100
      3 CA2          1.5680     0.1560     0.0480 cc         1 0TR       0.053900
      4 OA2          2.2000     0.2520    -1.1750 oh         1 0TR      -0.505100
      5 CA3          2.4130     0.0680     1.1110 cd         1 0TR      -0.155000
      6 CB3          2.0980    -0.0420     2.4910 cd         1 0TR      -0.062000
      7 CA5         -0.4000    -0.0350     2.4810 cc         1 0TR      -0.042000
      8 CA6         -0.7380     0.0700     1.1800 cd         1 0TR      -0.233200
      9 CAE          0.8860    -0.0870     3.0890 cc         1 0TR      -0.163000
     10 HA6         -1.8190     0.0930     0.9290 ha         1 0TR       0.152000
     11 HA2          1.5270     0.3110    -1.8770 ho         1 0TR       0.450000
     12 HAE          0.8660    -0.1750     4.1930 ha         1 0TR       0.132000
     13 HA5         -1.2400    -0.0920     3.2050 ha         1 0TR       0.130000
     14 HA3          3.4970     0.0850     0.8750 ha         1 0TR       0.152000
     15 HB3          2.9900    -0.0970     3.1500 ha         1 0TR       0.132000
@<TRIPOS>BOND
     1     1     2 2   
     2     1     3 1   
     3     1     8 1   
     4     3     4 1   
     5     3     5 2   
     6     4    11 1   
     7     5     6 1   
     8     5    14 1   
     9     6     9 2   
    10     6    15 1   
    11     7     8 2   
    12     7     9 1   
    13     7    13 1   
    14     8    10 1   
    15     9    12 1   
@<TRIPOS>SUBSTRUCTURE
     1 0TR         1 TEMP              0 ****  ****    0 ROOT
