@<TRIPOS>MOLECULE
0TR
   15    15     1     0     0
SMALL
bcc


@<TRIPOS>ATOM
      1 CA1          0.0000     0.0000     0.0000 c          1 0TR       0.570500
      2 OA1         -0.5360     0.0010    -1.1000 o          1 0TR      -0.594100
      3 CA2          1.4180     0.0000     0.0000 cc         1 0TR       0.073900
      4 OA2          2.0090    -0.0000    -1.2190 oh         1 0TR      -0.485100
      5 CA3          2.2730     0.0000     1.0850 cd         1 0TR      -0.120000
      6 CB3          1.9550    -0.0000     2.4400 cd         1 0TR      -0.053000
      7 CA5         -0.5470     0.0050     2.4450 cc         1 0TR      -0.037000
      8 CA6         -0.8690     0.0050     1.1060 cd         1 0TR      -0.181200
      9 CAE          0.7130    -0.0010     3.0390 cc         1 0TR      -0.104000
     10 HA6         -1.9270     0.0100     0.8740 ha         1 0TR       0.122000
     11 HA2          2.2430    -0.8820    -1.4550 ho         1 0TR       0.410000
     12 HAE          0.7170    -0.0080     4.1220 ha         1 0TR       0.098000
     13 HA5         -1.3880     0.0110     3.1280 ha         1 0TR       0.095000
     14 HA3          3.3300     0.0000     0.8500 ha         1 0TR       0.110000
     15 HB3          2.8000     0.0000     3.1180 ha         1 0TR       0.096000
@<TRIPOS>BOND
     1     1     2 2   
     2     1     3 1   
     3     1     8 1   
     4     3     4 1   
     5     3     5 2   
     6     4    11 1   
     7     5     6 1   
     8     5    14 1   
     9     6     9 2   
    10     6    15 1   
    11     7     8 2   
    12     7     9 1   
    13     7    13 1   
    14     8    10 1   
    15     9    12 1   
@<TRIPOS>SUBSTRUCTURE
     1 0TR         1 TEMP              0 ****  ****    0 ROOT
