@<TRIPOS>MOLECULE
0TU
   18    19     1     0     0
SMALL
bcc


@<TRIPOS>ATOM
      1 Cl           0.0000     0.0000     0.0000 cl         1 0TU      -0.019400
      2 C1           3.9960     0.0000     0.0000 ca         1 0TU      -0.142000
      3 C2           2.6780     0.0000     0.4020 ca         1 0TU      -0.047000
      4 C3           1.9310     0.0000    -1.8710 ca         1 0TU      -0.039000
      5 C4           3.2620     0.0000    -2.3020 ca         1 0TU      -0.120800
      6 C5           4.3040     0.0000    -1.3560 ca         1 0TU      -0.070400
      7 C6           1.6510     0.0000    -0.5340 ca         1 0TU      -0.070600
      8 C7           3.5970    -0.0000    -3.7270 cc         1 0TU      -0.008200
      9 C8           4.9050     0.0010    -4.0850 cd         1 0TU      -0.209200
     10 C9           5.9130    -0.0010    -3.0970 c          1 0TU       0.589700
     11 N10          5.6150    -0.0010    -1.7860 ns         1 0TU       0.045900
     12 O11          7.0820     0.0000    -3.4400 o          1 0TU      -0.685500
     13 H2           2.4400    -0.0000     1.4590 ha         1 0TU       0.115000
     14 H3           1.1280    -0.0870    -2.5930 ha         1 0TU       0.119000
     15 H7           2.8170     0.0020    -4.4790 ha         1 0TU       0.112000
     16 H8           5.1780     0.0010    -5.1340 ha         1 0TU       0.136000
     17 HN10         6.3550    -0.0020    -1.1120 hn         1 0TU       0.177500
     18 H1           4.7890     0.0000     0.7380 ha         1 0TU       0.116000
@<TRIPOS>BOND
     1     1     7 1   
     2     2     3 ar  
     3     2     6 ar  
     4     2    18 1   
     5     3     7 ar  
     6     3    13 1   
     7     4     5 ar  
     8     4     7 ar  
     9     4    14 1   
    10     5     6 ar  
    11     5     8 1   
    12     6    11 1   
    13     8     9 2   
    14     8    15 1   
    15     9    10 1   
    16     9    16 1   
    17    10    11 1   
    18    10    12 2   
    19    11    17 1   
@<TRIPOS>SUBSTRUCTURE
     1 0TU         1 TEMP              0 ****  ****    0 ROOT
