@<TRIPOS>MOLECULE
molecule
   18    19     1     0     0
SMALL
bcc


@<TRIPOS>ATOM
      1 Cl           0.0000     0.0000     0.0000 cl         1 0TU      -0.102400
      2 C1           3.9960     0.0000     0.0000 ca         1 0TU      -0.173000
      3 C2           2.6780     0.0000     0.4020 ca         1 0TU      -0.072000
      4 C3           1.9310     0.0000    -1.8710 ca         1 0TU      -0.065000
      5 C4           3.2620     0.0000    -2.3020 ca         1 0TU      -0.125800
      6 C5           4.3040     0.0000    -1.3560 ca         1 0TU       0.090600
      7 C6           1.6510     0.0000    -0.5340 ca         1 0TU      -0.007600
      8 C7           3.5970    -0.0000    -3.7270 cc         1 0TU      -0.039200
      9 C8           4.9050     0.0010    -4.0850 cd         1 0TU      -0.232200
     10 C9           5.9130    -0.0010    -3.0970 c          1 0TU       0.693700
     11 N10          5.6150    -0.0010    -1.7860 ns         1 0TU      -0.427100
     12 O11          7.0820     0.0000    -3.4400 o          1 0TU      -0.638500
     13 H2           2.4400    -0.0000     1.4590 ha         1 0TU       0.150000
     14 H3           1.1280    -0.0870    -2.5930 ha         1 0TU       0.152000
     15 H7           2.8170     0.0020    -4.4790 ha         1 0TU       0.146000
     16 H8           5.1780     0.0010    -5.1340 ha         1 0TU       0.168000
     17 HN10         6.3550    -0.0020    -1.1120 hn         1 0TU       0.341500
     18 H1           4.7890     0.0000     0.7380 ha         1 0TU       0.145000
@<TRIPOS>BOND
     1     1     7 1
     2     2     3 ar
     3     2     6 ar
     4     3     7 ar
     5     4     5 ar
     6     4     7 ar
     7     5     6 ar
     8     5     8 1
     9     6    11 1
    10     8     9 2
    11     9    10 1
    12    10    11 1
    13    10    12 2
    14     2    18 1
    15     3    13 1
    16     4    14 1
    17     8    15 1
    18     9    16 1
    19    11    17 1
@<TRIPOS>SUBSTRUCTURE
     1 0TU         1 TEMP              0 ****  ****    0 ROOT
