@<TRIPOS>MOLECULE
0TU
   18    19     1     0     0
SMALL
bcc


@<TRIPOS>ATOM
      1 Cl           0.0250    -0.0590     0.0250 cl         1 0TU      -0.086400
      2 C1           3.9960     0.0130     0.0090 ca         1 0TU      -0.179000
      3 C2           2.6800    -0.0030     0.4280 ca         1 0TU      -0.071000
      4 C3           1.9140    -0.0600    -1.8740 ca         1 0TU      -0.065000
      5 C4           3.2440    -0.0440    -2.3220 ca         1 0TU      -0.131800
      6 C5           4.3080    -0.0070    -1.3770 ca         1 0TU       0.099600
      7 C6           1.6360    -0.0400    -0.5140 ca         1 0TU      -0.024600
      8 C7           3.5670    -0.0650    -3.7280 cc         1 0TU      -0.032200
      9 C8           4.8510    -0.0490    -4.1410 cd         1 0TU      -0.227200
     10 C9           5.9610    -0.0110    -3.1770 c          1 0TU       0.691700
     11 N10          5.6250     0.0090    -1.8150 ns         1 0TU      -0.444100
     12 O11          7.1660     0.0050    -3.4890 o          1 0TU      -0.626500
     13 H2           2.4460     0.0130     1.5040 ha         1 0TU       0.152000
     14 H3           1.0980    -0.0890    -2.6140 ha         1 0TU       0.152000
     15 H7           2.7310    -0.0930    -4.4460 ha         1 0TU       0.145000
     16 H8           5.1480    -0.0640    -5.2000 ha         1 0TU       0.167000
     17 HN10         6.3580     0.0350    -1.1420 hn         1 0TU       0.334500
     18 H1           4.8050     0.0420     0.7550 ha         1 0TU       0.145000
@<TRIPOS>BOND
     1     1     7 1   
     2     2     3 ar  
     3     2     6 ar  
     4     2    18 1   
     5     3     7 ar  
     6     3    13 1   
     7     4     5 ar  
     8     4     7 ar  
     9     4    14 1   
    10     5     6 ar  
    11     5     8 1   
    12     6    11 1   
    13     8     9 2   
    14     8    15 1   
    15     9    10 1   
    16     9    16 1   
    17    10    11 1   
    18    10    12 2   
    19    11    17 1   
@<TRIPOS>SUBSTRUCTURE
     1 0TU         1 TEMP              0 ****  ****    0 ROOT
