@<TRIPOS>MOLECULE
molecule
   48    49     1     0     0
SMALL
bcc


@<TRIPOS>ATOM
      1 Cl           0.0000     0.0000     0.0000 cl         1 0TX      -0.108400
      2 N1           5.0690     0.0000     0.0000 nb         1 0TX      -0.731000
      3 C1           6.2430     0.0000     0.5870 ca         1 0TX       0.483200
      4 C2           6.3720    -0.0020     1.9690 ca         1 0TX      -0.367300
      5 C3           5.2350    -0.0040     2.7640 ca         1 0TX       0.248600
      6 C4           3.9760    -0.0020     2.1190 ca         1 0TX      -0.212300
      7 C5           2.7800    -0.0030     2.8520 ca         1 0TX      -0.091000
      8 C6           1.5870    -0.0030     2.1950 ca         1 0TX      -0.141000
      9 C7           1.5400    -0.0010     0.8020 ca         1 0TX       0.046400
     10 C8           2.6820    -0.0000     0.0600 ca         1 0TX      -0.169300
     11 C9           3.9310    -0.0010     0.7040 ca         1 0TX       0.465600
     12 C10          6.6460    -0.0060     4.7910 c3         1 0TX       0.234500
     13 C11          6.5300    -0.6170     6.1880 c3         1 0TX      -0.094400
     14 C12          6.1370    -2.0910     6.0690 c3         1 0TX      -0.085400
     15 C13          6.0220    -2.7030     7.4670 c3         1 0TX       0.160800
     16 N3           5.6440    -4.1180     7.3520 n3         1 0TX      -0.729600
     17 C14          5.7520    -4.7980     8.6500 c3         1 0TX       0.155800
     18 C15          7.2250    -5.0680     8.9620 c3         1 0TX      -0.093100
     19 C16          4.2920    -4.2590     6.7950 c3         1 0TX       0.155800
     20 C17          4.0760    -5.7030     6.3390 c3         1 0TX      -0.093100
     21 C18          7.1600     1.4310     4.9040 c3         1 0TX      -0.116100
     22 H11          7.1380     0.0010    -0.0240 h4         1 0TX       0.021100
     23 H21          7.3550    -0.0020     2.4240 ha         1 0TX       0.141000
     24 H51          2.8060    -0.0050     3.9350 ha         1 0TX       0.126000
     25 H61          0.6640    -0.0010     2.7620 ha         1 0TX       0.142000
     26 H81          2.6290    -0.0950    -1.0180 ha         1 0TX       0.163000
     27 HN21         4.5010     0.0370     4.7050 hn         1 0TX       0.441800
     28 H101         7.3380    -0.5910     4.1970 h1         1 0TX       0.067700
     29 H112         7.4830    -0.5380     6.6970 hc         1 0TX       0.050200
     30 H111         5.7740    -0.0860     6.7530 hc         1 0TX       0.050200
     31 H121         5.1840    -2.1710     5.5600 hc         1 0TX       0.054700
     32 H122         6.8930    -2.6230     5.5030 hc         1 0TX       0.054700
     33 H132         5.2650    -2.1720     8.0320 h1         1 0TX       0.033200
     34 H131         6.9750    -2.6240     7.9760 h1         1 0TX       0.033200
     35 H142         5.3280    -4.1690     9.4230 h1         1 0TX       0.033200
     36 H141         5.2130    -5.7370     8.6110 h1         1 0TX       0.033200
     37 H151         7.7770    -5.1770     8.0360 hc         1 0TX       0.039367
     38 H153         7.3100    -5.9790     9.5420 hc         1 0TX       0.039367
     39 H152         7.6320    -4.2400     9.5290 hc         1 0TX       0.039367
     40 H162         3.5610    -4.0060     7.5530 h1         1 0TX       0.033200
     41 H161         4.1790    -3.5930     5.9480 h1         1 0TX       0.033200
     42 H171         5.0230    -6.1320     6.0350 hc         1 0TX       0.039367
     43 H172         3.6640    -6.2820     7.1570 hc         1 0TX       0.039367
     44 H173         3.3870    -5.7190     5.5030 hc         1 0TX       0.039367
     45 H182         8.1510     1.4260     5.3410 hc         1 0TX       0.044367
     46 H181         7.2010     1.8780     3.9190 hc         1 0TX       0.044367
     47 H183         6.4900     2.0050     5.5340 hc         1 0TX       0.044367
     48 N2           5.3300    -0.0050     4.1470 nu         1 0TX      -0.800600
@<TRIPOS>BOND
     1    21    12 1
     2    13    12 1
     3    13    14 1
     4    48    12 1
     5    48     5 1
     6     7     8 ar
     7     7     6 ar
     8     8     9 ar
     9     5     6 ar
    10     5     4 ar
    11    18    17 1
    12    14    15 1
    13     6    11 ar
    14    17    16 1
    15     4     3 ar
    16     9     1 1
    17     9    10 ar
    18    15    16 1
    19    11    10 ar
    20    11     2 ar
    21     3     2 ar
    22    16    19 1
    23    19    20 1
    24     3    22 1
    25     4    23 1
    26     7    24 1
    27     8    25 1
    28    10    26 1
    29    48    27 1
    30    12    28 1
    31    13    29 1
    32    13    30 1
    33    14    31 1
    34    14    32 1
    35    15    33 1
    36    15    34 1
    37    17    35 1
    38    17    36 1
    39    18    37 1
    40    18    38 1
    41    18    39 1
    42    19    40 1
    43    19    41 1
    44    20    42 1
    45    20    43 1
    46    20    44 1
    47    21    45 1
    48    21    46 1
    49    21    47 1
@<TRIPOS>SUBSTRUCTURE
     1 0TX         1 TEMP              0 ****  ****    0 ROOT
