@<TRIPOS>MOLECULE
0TX
   48    49     1     0     0
SMALL
bcc


@<TRIPOS>ATOM
      1 Cl           0.0000     0.0000     0.0000 cl         1 0TX      -0.030400
      2 N1           5.0690     0.0000     0.0000 nb         1 0TX      -0.634000
      3 C1           6.2430     0.0000     0.5870 ca         1 0TX       0.476200
      4 C2           6.3720    -0.0020     1.9690 ca         1 0TX      -0.355300
      5 C3           5.2350    -0.0040     2.7640 ca         1 0TX       0.108600
      6 C4           3.9760    -0.0020     2.1190 ca         1 0TX      -0.205300
      7 C5           2.7800    -0.0030     2.8520 ca         1 0TX      -0.068000
      8 C6           1.5870    -0.0030     2.1950 ca         1 0TX      -0.117000
      9 C7           1.5400    -0.0010     0.8020 ca         1 0TX      -0.017600
     10 C8           2.6820    -0.0000     0.0600 ca         1 0TX      -0.150300
     11 C9           3.9310    -0.0010     0.7040 ca         1 0TX       0.428600
     12 C10          6.6460    -0.0060     4.7910 c3         1 0TX       0.126500
     13 C11          6.5300    -0.6170     6.1880 c3         1 0TX      -0.036400
     14 C12          6.1370    -2.0910     6.0690 c3         1 0TX      -0.044400
     15 C13          6.0220    -2.7030     7.4670 c3         1 0TX       0.149800
     16 N3           5.6440    -4.1180     7.3520 n3         1 0TX      -0.539600
     17 C14          5.7520    -4.7980     8.6500 c3         1 0TX       0.142300
     18 C15          7.2250    -5.0680     8.9620 c3         1 0TX      -0.000600
     19 C16          4.2920    -4.2590     6.7950 c3         1 0TX       0.142300
     20 C17          4.0760    -5.7030     6.3390 c3         1 0TX      -0.000600
     21 C18          7.1600     1.4310     4.9040 c3         1 0TX      -0.023100
     22 H11          7.1380     0.0010    -0.0240 h4         1 0TX      -0.027900
     23 H21          7.3550    -0.0020     2.4240 ha         1 0TX       0.129000
     24 H51          2.8060    -0.0050     3.9350 ha         1 0TX       0.101000
     25 H61          0.6640    -0.0010     2.7620 ha         1 0TX       0.113000
     26 H81          2.6290    -0.0950    -1.0180 ha         1 0TX       0.130000
     27 HN21         4.5010     0.0370     4.7050 hn         1 0TX       0.299800
     28 H101         7.3380    -0.5910     4.1970 h1         1 0TX       0.048700
     29 H112         7.4830    -0.5380     6.6970 hc         1 0TX       0.023700
     30 H111         5.7740    -0.0860     6.7530 hc         1 0TX       0.023700
     31 H121         5.1840    -2.1710     5.5600 hc         1 0TX       0.028200
     32 H122         6.8930    -2.6230     5.5030 hc         1 0TX       0.028200
     33 H132         5.2650    -2.1720     8.0320 h1         1 0TX       0.010700
     34 H131         6.9750    -2.6240     7.9760 h1         1 0TX       0.010700
     35 H142         5.3280    -4.1690     9.4230 h1         1 0TX       0.010450
     36 H141         5.2130    -5.7370     8.6110 h1         1 0TX       0.010450
     37 H151         7.7770    -5.1770     8.0360 hc         1 0TX       0.007200
     38 H153         7.3100    -5.9790     9.5420 hc         1 0TX       0.007200
     39 H152         7.6320    -4.2400     9.5290 hc         1 0TX       0.007200
     40 H162         3.5610    -4.0060     7.5530 h1         1 0TX       0.010450
     41 H161         4.1790    -3.5930     5.9480 h1         1 0TX       0.010450
     42 H171         5.0230    -6.1320     6.0350 hc         1 0TX       0.007200
     43 H172         3.6640    -6.2820     7.1570 hc         1 0TX       0.007200
     44 H173         3.3870    -5.7190     5.5030 hc         1 0TX       0.007200
     45 H182         8.1510     1.4260     5.3410 hc         1 0TX       0.013367
     46 H181         7.2010     1.8780     3.9190 hc         1 0TX       0.013367
     47 H183         6.4900     2.0050     5.5340 hc         1 0TX       0.013367
     48 N2           5.3300    -0.0050     4.1470 nu         1 0TX      -0.393600
@<TRIPOS>BOND
     1     1     9 1   
     2     2     3 ar  
     3     2    11 ar  
     4     3     4 ar  
     5     3    22 1   
     6     4     5 ar  
     7     4    23 1   
     8     5     6 ar  
     9     5    48 1   
    10     6     7 ar  
    11     6    11 ar  
    12     7     8 ar  
    13     7    24 1   
    14     8     9 ar  
    15     8    25 1   
    16     9    10 ar  
    17    10    11 ar  
    18    10    26 1   
    19    12    13 1   
    20    12    21 1   
    21    12    28 1   
    22    12    48 1   
    23    13    14 1   
    24    13    29 1   
    25    13    30 1   
    26    14    15 1   
    27    14    31 1   
    28    14    32 1   
    29    15    16 1   
    30    15    33 1   
    31    15    34 1   
    32    16    17 1   
    33    16    19 1   
    34    17    18 1   
    35    17    35 1   
    36    17    36 1   
    37    18    37 1   
    38    18    38 1   
    39    18    39 1   
    40    19    20 1   
    41    19    40 1   
    42    19    41 1   
    43    20    42 1   
    44    20    43 1   
    45    20    44 1   
    46    21    45 1   
    47    21    46 1   
    48    21    47 1   
    49    27    48 1   
@<TRIPOS>SUBSTRUCTURE
     1 0TX         1 TEMP              0 ****  ****    0 ROOT
