@<TRIPOS>MOLECULE
0TZ
   36    39     1     0     0
SMALL
bcc


@<TRIPOS>ATOM
      1 N8           0.0000     0.0000     0.0000 na         1 0TZ       0.406400
      2 N9           1.4000     0.0000     0.0000 nc         1 0TZ      -0.673800
      3 C12          1.8140     0.0000     1.2410 cd         1 0TZ       0.410200
      4 C13          0.6960    -0.0020     2.0790 cd         1 0TZ      -0.369300
      5 C11         -0.4150    -0.0020     1.2930 cc         1 0TZ      -0.163700
      6 N7          -1.7360    -0.0030     1.7340 nu         1 0TZ      -0.137400
      7 C6          -2.0150    -0.0030     3.0980 cc         1 0TZ       0.242600
      8 N6          -1.1160     0.0040     4.0790 nc         1 0TZ      -0.298600
      9 C5          -1.7360     0.0060     5.2570 cd         1 0TZ      -0.201300
     10 C10         -1.2430     0.0130     6.5750 cd         1 0TZ      -0.052000
     11 C9          -2.1200     0.0150     7.6170 cc         1 0TZ      -0.108000
     12 C8          -3.4990     0.0110     7.3630 cc         1 0TZ      -0.102000
     13 C7          -3.9550     0.0040     6.0900 cd         1 0TZ      -0.278300
     14 N5          -3.0870     0.0020     5.0420 na         1 0TZ       0.689700
     15 C4          -3.2800    -0.0040     3.6720 cd         1 0TZ      -0.590900
     16 C3          -4.5650    -0.0040     2.9670 ca         1 0TZ       0.800800
     17 N3          -5.7080    -0.0050     3.6580 nb         1 0TZ      -0.731000
     18 N1          -4.5970     0.0020     1.6290 nb         1 0TZ      -0.719000
     19 C1          -5.7550     0.0010     0.9970 ca         1 0TZ       0.665300
     20 C14         -5.7870     0.0070    -0.5100 c3         1 0TZ      -0.037400
     21 N2          -6.8880    -0.0050     1.6800 nb         1 0TZ      -0.705000
     22 C2          -6.8680    -0.0060     3.0110 ca         1 0TZ       0.780900
     23 N4          -8.0530    -0.0070     3.7200 nv         1 0TZ      -0.639500
     24 H1          -0.5900     0.0000    -0.8090 hn         1 0TZ       0.143700
     25 H2           2.8480     0.0000     1.5640 h4         1 0TZ       0.000100
     26 H3           0.7110    -0.0020     3.1630 ha         1 0TZ       0.185000
     27 H4          -2.4860    -0.0090     1.0700 hn         1 0TZ       0.309800
     28 H5          -0.1760     0.0160     6.7590 ha         1 0TZ       0.128000
     29 H6          -1.7540     0.0210     8.6360 ha         1 0TZ       0.116000
     30 H7          -4.2010     0.0120     8.1880 ha         1 0TZ       0.119000
     31 H8          -5.0220     0.0000     5.9020 h4         1 0TZ       0.169000
     32 H9          -6.8160     0.0110    -0.8490 hc         1 0TZ       0.023033
     33 H10         -5.2860    -0.8770    -0.8850 hc         1 0TZ       0.023033
     34 H11         -5.2830     0.8920    -0.8780 hc         1 0TZ       0.023033
     35 H12         -8.4860    -0.8740     3.9680 hn         1 0TZ       0.286800
     36 H13         -8.4880     0.8600     3.9680 hn         1 0TZ       0.286800
@<TRIPOS>BOND
     1     1     2 1   
     2     1     5 1   
     3     1    24 1   
     4     2     3 2   
     5     3     4 1   
     6     3    25 1   
     7     4     5 2   
     8     4    26 1   
     9     5     6 1   
    10     6     7 1   
    11     6    27 1   
    12     7     8 1   
    13     7    15 2   
    14     8     9 2   
    15     9    10 1   
    16     9    14 1   
    17    10    11 2   
    18    10    28 1   
    19    11    12 1   
    20    11    29 1   
    21    12    13 2   
    22    12    30 1   
    23    13    14 1   
    24    13    31 1   
    25    14    15 1   
    26    15    16 1   
    27    16    17 ar  
    28    16    18 ar  
    29    17    22 ar  
    30    18    19 ar  
    31    19    20 1   
    32    19    21 ar  
    33    20    32 1   
    34    20    33 1   
    35    20    34 1   
    36    21    22 ar  
    37    22    23 1   
    38    23    35 1   
    39    23    36 1   
@<TRIPOS>SUBSTRUCTURE
     1 0TZ         1 TEMP              0 ****  ****    0 ROOT
