@<TRIPOS>MOLECULE
0TZ
   36    39     1     0     0
SMALL
bcc


@<TRIPOS>ATOM
      1 N8           0.1580     0.5980    -0.0680 na         1 0TZ      -0.005600
      2 N9           1.4790     0.4680    -0.1680 nc         1 0TZ      -0.523800
      3 C12          1.9360     0.0120     1.0280 cd         1 0TZ       0.307200
      4 C13          0.8420    -0.1980     1.9380 cd         1 0TZ      -0.340300
      5 C11         -0.3110     0.1770     1.1960 cc         1 0TZ       0.111300
      6 N7          -1.6250     0.2380     1.6620 nu         1 0TZ      -0.573400
      7 C6          -2.7310     0.0510     0.8580 cc         1 0TZ       0.378600
      8 N6          -2.7100     0.1190    -0.5390 nc         1 0TZ      -0.371600
      9 C5          -4.0120    -0.0340    -0.9380 cd         1 0TZ       0.032700
     10 C10         -4.5510    -0.0490    -2.2620 cd         1 0TZ      -0.128000
     11 C9          -5.9020    -0.2270    -2.4290 cc         1 0TZ      -0.089000
     12 C8          -6.7470    -0.3970    -1.3050 cc         1 0TZ      -0.197000
     13 C7          -6.2320    -0.3830    -0.0210 cd         1 0TZ      -0.038300
     14 N5          -4.8880    -0.2020     0.1790 na         1 0TZ       0.059700
     15 C4          -4.0870    -0.1560     1.3380 cd         1 0TZ      -0.341900
     16 C3          -4.5550    -0.2850     2.7080 ca         1 0TZ       0.836800
     17 N3          -5.9070    -0.3010     2.9390 nb         1 0TZ      -0.837000
     18 N1          -3.5970    -0.3800     3.6940 nb         1 0TZ      -0.822000
     19 C1          -4.0670    -0.4910     4.9750 ca         1 0TZ       0.726300
     20 C14         -3.0390    -0.5900     6.0770 c3         1 0TZ      -0.143400
     21 N2          -5.3810    -0.5180     5.3340 nb         1 0TZ      -0.801000
     22 C2          -6.2820    -0.4340     4.2720 ca         1 0TZ       0.916900
     23 N4          -7.6340    -0.5310     4.5600 nv         1 0TZ      -0.941500
     24 H1          -0.3900     0.8130    -0.8710 hn         1 0TZ       0.342700
     25 H2           2.9960    -0.1570     1.2160 h4         1 0TZ       0.040100
     26 H3           0.8870    -0.5560     2.9570 ha         1 0TZ       0.164000
     27 H4          -1.7280     0.0010     2.6310 hn         1 0TZ       0.486800
     28 H5          -3.8590     0.0830    -3.1050 ha         1 0TZ       0.168000
     29 H6          -6.3440    -0.2420    -3.4370 ha         1 0TZ       0.147000
     30 H7          -7.8270    -0.5420    -1.4470 ha         1 0TZ       0.154000
     31 H8          -6.8750    -0.5180     0.8670 h4         1 0TZ       0.199000
     32 H9          -2.4290    -1.5150     5.9290 hc         1 0TZ       0.066700
     33 H10         -2.3640     0.3000     6.0400 hc         1 0TZ       0.066700
     34 H11         -3.5250    -0.6340     7.0820 hc         1 0TZ       0.066700
     35 H12         -7.9180    -0.4620     5.5080 hn         1 0TZ       0.441300
     36 H13         -8.2870    -0.2900     3.8560 hn         1 0TZ       0.441300
@<TRIPOS>BOND
     1     1     2 1   
     2     1     5 1   
     3     1    24 1   
     4     2     3 2   
     5     3     4 1   
     6     3    25 1   
     7     4     5 2   
     8     4    26 1   
     9     5     6 1   
    10     6     7 1   
    11     6    27 1   
    12     7     8 1   
    13     7    15 2   
    14     8     9 2   
    15     9    10 1   
    16     9    14 1   
    17    10    11 2   
    18    10    28 1   
    19    11    12 1   
    20    11    29 1   
    21    12    13 2   
    22    12    30 1   
    23    13    14 1   
    24    13    31 1   
    25    14    15 1   
    26    15    16 1   
    27    16    17 ar  
    28    16    18 ar  
    29    17    22 ar  
    30    18    19 ar  
    31    19    20 1   
    32    19    21 ar  
    33    20    32 1   
    34    20    33 1   
    35    20    34 1   
    36    21    22 ar  
    37    22    23 1   
    38    23    35 1   
    39    23    36 1   
@<TRIPOS>SUBSTRUCTURE
     1 0TZ         1 TEMP              0 ****  ****    0 ROOT
