@<TRIPOS>MOLECULE
0U0
   44    48     1     0     0
SMALL
bcc


@<TRIPOS>ATOM
      1 C15         -0.0730    -0.9840    -0.1530 ca         1 0U0       0.251900
      2 N10          1.2540    -0.8810    -0.3110 nb         1 0U0      -0.605000
      3 C16          1.9420    -0.2610     0.6700 ca         1 0U0       0.240900
      4 C17          1.2880     0.2610     1.8130 ca         1 0U0       0.316900
      5 N11         -0.0410     0.1740     1.9950 nb         1 0U0      -0.666000
      6 C14         -0.7510    -0.4640     1.0120 ca         1 0U0       0.512900
      7 N7          -2.1390    -0.6900     1.1210 nu         1 0U0      -0.806600
      8 C9          -2.8720    -0.1540     2.2180 ca         1 0U0       0.651200
      9 C8          -2.5560    -0.5500     3.5460 ca         1 0U0      -0.319600
     10 N5          -3.9370     0.6630     1.9490 nb         1 0U0      -0.750000
     11 C10         -4.6870     1.0630     3.0160 ca         1 0U0       0.676300
     12 C18         -5.8770     1.9510     2.7310 c3         1 0U0      -0.135400
     13 N6          -4.4600     0.7340     4.3220 nb         1 0U0      -0.736000
     14 C7          -3.3930    -0.0710     4.5790 ca         1 0U0       0.567100
     15 C5          -3.1620    -0.4630     5.9600 cc         1 0U0      -0.267900
     16 N2          -1.9010    -0.6310     6.5640 na         1 0U0       0.188200
     17 N1          -0.6890    -0.4570     6.0610 nc         1 0U0      -0.448800
     18 C2           0.3410    -0.6640     6.8780 cd         1 0U0       0.344200
     19 C1           0.2240    -1.0580     8.2570 cd         1 0U0      -0.231300
     20 C4          -1.0230    -1.2330     8.7900 cc         1 0U0      -0.057000
     21 C3          -2.1580    -1.0100     7.9390 cc         1 0U0      -0.041300
     22 N3          -3.4910    -1.0790     8.1980 nd         1 0U0      -0.273600
     23 C6          -4.1280    -0.7460     6.9940 cd         1 0U0       0.324600
     24 N4          -5.5030    -0.7660     6.7710 nu         1 0U0      -0.657700
     25 C11         -6.4030    -1.0950     7.7950 cc         1 0U0       0.511200
     26 C13         -7.7320    -0.4980     7.9290 cc         1 0U0      -0.325300
     27 C12         -8.3220    -1.1890     8.9930 cd         1 0U0      -0.133300
     28 N9          -7.3820    -2.1190     9.4340 na         1 0U0      -0.023600
     29 N8          -6.2410    -2.0840     8.7440 nd         1 0U0      -0.498800
     30 H1          -0.6260    -1.4940    -0.9600 h4         1 0U0       0.037100
     31 H2           3.0330    -0.1790     0.5390 h4         1 0U0       0.036100
     32 H3           1.8480     0.7770     2.6110 h4         1 0U0       0.034100
     33 H4          -2.6050    -0.6050     0.2350 hn         1 0U0       0.432800
     34 H5          -1.7040    -1.2080     3.7530 ha         1 0U0       0.178000
     35 H6          -5.8610     2.3220     1.6780 hc         1 0U0       0.061700
     36 H7          -5.8720     2.8290     3.4220 hc         1 0U0       0.061700
     37 H8          -6.8150     1.3650     2.8940 hc         1 0U0       0.061700
     38 H9           1.3350    -0.5120     6.4210 h4         1 0U0       0.042100
     39 H10          1.1380    -1.2080     8.8460 ha         1 0U0       0.156000
     40 H11         -1.2030    -1.5320     9.8330 ha         1 0U0       0.171000
     41 H12         -5.8350    -0.0210     6.1900 hn         1 0U0       0.452800
     42 H13         -8.1520     0.2960     7.3250 ha         1 0U0       0.166000
     43 H14         -9.3050    -1.0900     9.4510 h4         1 0U0       0.175000
     44 H15         -7.4740    -2.7520    10.1910 hn         1 0U0       0.321700
@<TRIPOS>BOND
     1     1     2 ar  
     2     1     6 ar  
     3     1    30 1   
     4     2     3 ar  
     5     3     4 ar  
     6     3    31 1   
     7     4     5 ar  
     8     4    32 1   
     9     5     6 ar  
    10     6     7 1   
    11     7     8 1   
    12     7    33 1   
    13     8     9 ar  
    14     8    10 ar  
    15     9    14 ar  
    16     9    34 1   
    17    10    11 ar  
    18    11    12 1   
    19    11    13 ar  
    20    12    35 1   
    21    12    36 1   
    22    12    37 1   
    23    13    14 ar  
    24    14    15 1   
    25    15    16 1   
    26    15    23 2   
    27    16    17 1   
    28    16    21 1   
    29    17    18 2   
    30    18    19 1   
    31    18    38 1   
    32    19    20 2   
    33    19    39 1   
    34    20    21 1   
    35    20    40 1   
    36    21    22 2   
    37    22    23 1   
    38    23    24 1   
    39    24    25 1   
    40    24    41 1   
    41    25    26 1   
    42    25    29 2   
    43    26    27 2   
    44    26    42 1   
    45    27    28 1   
    46    27    43 1   
    47    28    29 1   
    48    28    44 1   
@<TRIPOS>SUBSTRUCTURE
     1 0U0         1 TEMP              0 ****  ****    0 ROOT
