@<TRIPOS>MOLECULE
molecule
   44    48     1     0     0
SMALL
bcc


@<TRIPOS>ATOM
      1 C15          0.0000     0.0000     0.0000 ca         1 0U0       0.247900
      2 N10          1.3190     0.0000     0.0000 nb         1 0U0      -0.624000
      3 C16          1.9830     0.0000     1.1440 ca         1 0U0       0.244900
      4 C17          1.2990    -0.0010     2.3450 ca         1 0U0       0.331900
      5 N11         -0.0240    -0.0030     2.3530 nb         1 0U0      -0.645000
      6 C14         -0.6930     0.0040     1.2080 ca         1 0U0       0.553900
      7 N7          -2.0840     0.0040     1.2150 nu         1 0U0      -0.859600
      8 C9          -2.7740    -0.1000     2.4150 ca         1 0U0       0.714200
      9 C8          -4.1600    -0.2120     2.4250 ca         1 0U0      -0.422600
     10 N5          -2.1170    -0.1010     3.5740 nb         1 0U0      -0.743000
     11 C10         -2.7580    -0.2010     4.7200 ca         1 0U0       0.724300
     12 C18         -1.9680    -0.1970     6.0030 c3         1 0U0      -0.121400
     13 N6          -4.0700    -0.3020     4.7790 nb         1 0U0      -0.788000
     14 C7          -4.8050    -0.3150     3.6620 ca         1 0U0       0.594100
     15 C5          -6.2690    -0.4350     3.7330 cc         1 0U0      -0.275900
     16 N2          -7.1770     0.0010     2.7960 na         1 0U0       0.211200
     17 N1          -7.0330     0.6460     1.5640 nd         1 0U0      -0.480800
     18 C2          -8.0830     0.9580     0.8480 cc         1 0U0       0.397200
     19 C1          -9.3720     0.6520     1.2960 cc         1 0U0      -0.272300
     20 C4          -9.5510     0.0230     2.4930 cd         1 0U0      -0.028000
     21 C3          -8.4250    -0.3130     3.2650 cd         1 0U0      -0.044300
     22 N3          -8.2980    -0.9170     4.4430 nc         1 0U0      -0.343600
     23 C6          -7.0080    -1.0150     4.7580 cc         1 0U0       0.387600
     24 N4          -6.4890    -1.5880     5.9170 nu         1 0U0      -0.713700
     25 C11         -7.3530    -2.1290     6.8770 cd         1 0U0       0.593200
     26 C13         -8.7550    -2.1600     6.8020 cd         1 0U0      -0.353300
     27 C12         -9.2170    -2.7630     7.9200 cc         1 0U0      -0.114300
     28 N9          -8.1520    -3.1020     8.6780 na         1 0U0      -0.048600
     29 N8          -6.9940    -2.6990     8.0020 nc         1 0U0      -0.565800
     30 H1          -0.5430     0.0030    -0.9370 h4         1 0U0       0.025100
     31 H2           3.0670     0.0010     1.1390 h4         1 0U0       0.031100
     32 H3           1.8460    -0.0040     3.2800 h4         1 0U0       0.033100
     33 H4          -2.5880     0.0800     0.3530 hn         1 0U0       0.467800
     34 H5          -4.7240    -0.2190     1.5010 ha         1 0U0       0.156000
     35 H6          -1.2260     0.5920     5.9680 hc         1 0U0       0.061367
     36 H7          -2.6360    -0.0280     6.8390 hc         1 0U0       0.061367
     37 H8          -1.4720    -1.1530     6.1250 hc         1 0U0       0.061367
     38 H9          -7.9520     1.4580    -0.1040 h4         1 0U0       0.051100
     39 H10        -10.2310     0.9170     0.6920 ha         1 0U0       0.152000
     40 H11        -10.5480    -0.2150     2.8440 ha         1 0U0       0.167000
     41 H12         -5.4990    -1.6490     6.0450 hn         1 0U0       0.490800
     42 H13         -9.3590    -1.7700     5.9920 ha         1 0U0       0.192000
     43 H14        -10.2580    -2.9400     8.1660 h4         1 0U0       0.166000
     44 H15         -8.1850    -3.5640     9.5650 hn         1 0U0       0.327700
@<TRIPOS>BOND
     1    19    20 2   
     2    19    18 1   
     3    20    21 1   
     4    18    17 2   
     5    21    22 2   
     6    21    16 1   
     7    22    23 1   
     8    17    16 1   
     9    16    15 1   
    10    29    28 1   
    11    29    25 2   
    12    28    27 1   
    13    23    15 2   
    14    23    24 1   
    15    15    14 1   
    16    25    24 1   
    17    25    26 1   
    18    27    26 2   
    19     4     3 ar  
    20     4     5 ar  
    21     3     2 ar  
    22     5     6 ar  
    23    14     9 ar  
    24    14    13 ar  
    25     9     8 ar  
    26     2     1 ar  
    27     6     1 ar  
    28     6     7 1   
    29    13    11 ar  
    30     8     7 1   
    31     8    10 ar  
    32    11    10 ar  
    33    11    12 1   
    34     1    30 1   
    35     3    31 1   
    36     4    32 1   
    37     7    33 1   
    38     9    34 1   
    39    12    35 1   
    40    12    36 1   
    41    12    37 1   
    42    18    38 1   
    43    19    39 1   
    44    20    40 1   
    45    24    41 1   
    46    26    42 1   
    47    27    43 1   
    48    28    44 1   
@<TRIPOS>SUBSTRUCTURE
     1 0U0         1 TEMP              0 ****  ****    0 ROOT
