@<TRIPOS>MOLECULE
0U0
   44    48     1     0     0
SMALL
bcc


@<TRIPOS>ATOM
      1 C15          0.0000     0.0000     0.0000 ca         1 0U0       0.229900
      2 N10          1.3190     0.0000     0.0000 nb         1 0U0      -0.518000
      3 C16          1.9830     0.0000     1.1440 ca         1 0U0       0.233900
      4 C17          1.2990    -0.0010     2.3450 ca         1 0U0       0.320900
      5 N11         -0.0240    -0.0030     2.3530 nb         1 0U0      -0.539000
      6 C14         -0.6930     0.0040     1.2080 ca         1 0U0       0.356900
      7 N7          -2.0840     0.0040     1.2150 nu         1 0U0      -0.390600
      8 C9          -2.7740    -0.1000     2.4150 ca         1 0U0       0.517200
      9 C8          -4.1600    -0.2120     2.4250 ca         1 0U0      -0.416600
     10 N5          -2.1170    -0.1010     3.5740 nb         1 0U0      -0.629000
     11 C10         -2.7580    -0.2010     4.7200 ca         1 0U0       0.638300
     12 C18         -1.9680    -0.1970     6.0030 c3         1 0U0      -0.034400
     13 N6          -4.0700    -0.3020     4.7790 nb         1 0U0      -0.677000
     14 C7          -4.8050    -0.3150     3.6620 ca         1 0U0       0.573100
     15 C5          -6.2690    -0.4350     3.7330 cc         1 0U0      -0.486900
     16 N2          -7.1770     0.0010     2.7960 na         1 0U0       0.731200
     17 N1          -7.0330     0.6460     1.5640 nc         1 0U0      -0.633800
     18 C2          -8.0830     0.9580     0.8480 cd         1 0U0       0.471200
     19 C1          -9.3720     0.6520     1.2960 cd         1 0U0      -0.282300
     20 C4          -9.5510     0.0230     2.4930 cc         1 0U0       0.030000
     21 C3          -8.4250    -0.3130     3.2650 cc         1 0U0      -0.263300
     22 N3          -8.2980    -0.9170     4.4430 nd         1 0U0      -0.268600
     23 C6          -7.0080    -1.0150     4.7580 cd         1 0U0       0.201600
     24 N4          -6.4890    -1.5880     5.9170 nu         1 0U0      -0.225700
     25 C11         -7.3530    -2.1290     6.8770 cc         1 0U0       0.456200
     26 C13         -8.7550    -2.1600     6.8020 cc         1 0U0      -0.348300
     27 C12         -9.2170    -2.7630     7.9200 cd         1 0U0      -0.258300
     28 N9          -8.1520    -3.1020     8.6780 na         1 0U0       0.447400
     29 N8          -6.9940    -2.6990     8.0020 nd         1 0U0      -0.715800
     30 H1          -0.5430     0.0030    -0.9370 h4         1 0U0      -0.011900
     31 H2           3.0670     0.0010     1.1390 h4         1 0U0      -0.008900
     32 H3           1.8460    -0.0040     3.2800 h4         1 0U0      -0.011900
     33 H4          -2.5880     0.0800     0.3530 hn         1 0U0       0.292800
     34 H5          -4.7240    -0.2190     1.5010 ha         1 0U0       0.142000
     35 H6          -1.2260     0.5920     5.9680 hc         1 0U0       0.020033
     36 H7          -2.6360    -0.0280     6.8390 hc         1 0U0       0.020033
     37 H8          -1.4720    -1.1530     6.1250 hc         1 0U0       0.020033
     38 H9          -7.9520     1.4580    -0.1040 h4         1 0U0      -0.006900
     39 H10        -10.2310     0.9170     0.6920 ha         1 0U0       0.127000
     40 H11        -10.5480    -0.2150     2.8440 ha         1 0U0       0.125000
     41 H12         -5.4990    -1.6490     6.0450 hn         1 0U0       0.312800
     42 H13         -9.3590    -1.7700     5.9920 ha         1 0U0       0.179000
     43 H14        -10.2580    -2.9400     8.1660 h4         1 0U0       0.139000
     44 H15         -8.1850    -3.5640     9.5650 hn         1 0U0       0.142700
@<TRIPOS>BOND
     1     1     2 ar  
     2     1     6 ar  
     3     1    30 1   
     4     2     3 ar  
     5     3     4 ar  
     6     3    31 1   
     7     4     5 ar  
     8     4    32 1   
     9     5     6 ar  
    10     6     7 1   
    11     7     8 1   
    12     7    33 1   
    13     8     9 ar  
    14     8    10 ar  
    15     9    14 ar  
    16     9    34 1   
    17    10    11 ar  
    18    11    12 1   
    19    11    13 ar  
    20    12    35 1   
    21    12    36 1   
    22    12    37 1   
    23    13    14 ar  
    24    14    15 1   
    25    15    16 1   
    26    15    23 2   
    27    16    17 1   
    28    16    21 1   
    29    17    18 2   
    30    18    19 1   
    31    18    38 1   
    32    19    20 2   
    33    19    39 1   
    34    20    21 1   
    35    20    40 1   
    36    21    22 2   
    37    22    23 1   
    38    23    24 1   
    39    24    25 1   
    40    24    41 1   
    41    25    26 1   
    42    25    29 2   
    43    26    27 2   
    44    26    42 1   
    45    27    28 1   
    46    27    43 1   
    47    28    29 1   
    48    28    44 1   
@<TRIPOS>SUBSTRUCTURE
     1 0U0         1 TEMP              0 ****  ****    0 ROOT
