@<TRIPOS>MOLECULE
0U3
   73    74     1     0     0
SMALL
bcc


@<TRIPOS>ATOM
      1 C1           0.2000    -0.7310     0.4270 ca         1 0U3      -0.235000
      2 C2           1.5890    -0.5500     0.4350 ca         1 0U3       0.016100
      3 C3           2.2850    -0.2740     1.6220 ca         1 0U3      -0.052300
      4 C4           1.5430    -0.1520     2.8050 ca         1 0U3      -0.098000
      5 C5           0.1520    -0.3000     2.8220 ca         1 0U3      -0.036300
      6 C6          -0.5060    -0.6070     1.6190 ca         1 0U3      -0.087000
      7 C7          -0.6320    -0.2320     4.1130 c3         1 0U3       0.044600
      8 C8          -2.0210     0.3180     3.8970 ca         1 0U3      -0.113300
      9 C9           0.0530     0.6550     5.1730 c3         1 0U3      -0.073900
     10 C10         -0.6390    -1.6630     4.6940 c3         1 0U3      -0.073900
     11 C11         -1.3670    -2.6800     3.8570 c3         1 0U3      -0.100100
     12 C12          0.3000     2.0770     4.7440 c3         1 0U3      -0.100100
     13 C13         -3.1060    -0.1250     4.6660 ca         1 0U3      -0.096000
     14 C14         -4.3800     0.4190     4.5160 ca         1 0U3      -0.087300
     15 C15         -4.5710     1.4510     3.5670 ca         1 0U3       0.140100
     16 C16         -5.5200    -0.0590     5.3300 c3         1 0U3      -0.049800
     17 C17         -3.4970     1.9130     2.8000 ca         1 0U3      -0.206000
     18 C18         -2.2350     1.3490     2.9750 ca         1 0U3      -0.114000
     19 O19          2.3700    -0.5850    -0.7290 os         1 0U3      -0.324900
     20 O22         -0.0050     1.7370    -3.0310 oh         1 0U3      -0.344300
     21 C20          1.8340    -1.2770    -1.8270 c3         1 0U3       0.072400
     22 C21          0.9250    -0.4080    -2.6870 c          1 0U3       0.517100
     23 N23          0.7750     1.0510    -2.1710 ny         1 0U3      -0.473300
     24 O24          0.3320    -0.7050    -3.6980 o          1 0U3      -0.341100
     25 C25         -8.1470     4.3120     1.8800 c3         1 0U3      -0.083000
     26 C26         -9.4480     4.9390     2.3710 c3         1 0U3      -0.091100
     27 C27         -7.2650     5.4000     1.2910 c3         1 0U3      -0.091100
     28 C28         -8.4830     3.2740     0.8200 c3         1 0U3      -0.091100
     29 C29         -6.0290     3.1450     2.7290 c3         1 0U3       0.128400
     30 O30         -5.8620     1.9180     3.4560 os         1 0U3      -0.322900
     31 C31         -7.4430     3.6310     3.0730 c3         1 0U3       0.145100
     32 O32         -7.2610     4.5380     4.1530 oh         1 0U3      -0.598800
     33 C33          3.7560    -0.1070     1.6350 c3         1 0U3      -0.059800
     34 H1          -0.3380    -1.0370    -0.4820 ha         1 0U3       0.120000
     35 H2           2.0910     0.0540     3.7400 ha         1 0U3       0.165000
     36 H3          -1.5980    -0.7680     1.6250 ha         1 0U3       0.170000
     37 H4           1.0210     0.1780     5.4810 hc         1 0U3       0.051950
     38 H5          -0.6100     0.6610     6.0810 hc         1 0U3       0.051950
     39 H6          -1.0850    -1.6300     5.7230 hc         1 0U3       0.051950
     40 H7           0.4310    -1.9870     4.8160 hc         1 0U3       0.051950
     41 H8          -0.8620    -2.8220     2.8710 hc         1 0U3       0.039867
     42 H9          -1.3830    -3.6640     4.3870 hc         1 0U3       0.039867
     43 H10         -2.4220    -2.3650     3.6660 hc         1 0U3       0.039867
     44 H11          0.9230     2.1180     3.8180 hc         1 0U3       0.039867
     45 H12         -0.6650     2.6030     4.5410 hc         1 0U3       0.039867
     46 H13          0.8370     2.6280     5.5540 hc         1 0U3       0.039867
     47 H14         -2.9660    -0.9160     5.4210 ha         1 0U3       0.143000
     48 H15         -5.1850    -0.7610     6.1310 hc         1 0U3       0.054033
     49 H16         -6.0430     0.8110     5.8040 hc         1 0U3       0.054033
     50 H17         -6.2600    -0.5850     4.6760 hc         1 0U3       0.054033
     51 H18         -3.6340     2.7220     2.0700 ha         1 0U3       0.134000
     52 H19         -1.3900     1.7380     2.3870 ha         1 0U3       0.116000
     53 H20         -0.1140     2.6580    -2.7020 ho         1 0U3       0.466000
     54 H21          2.7270    -1.5580    -2.4610 h1         1 0U3       0.142700
     55 H22          1.2500    -2.1950    -1.5350 h1         1 0U3       0.142700
     56 H23          0.3580     1.0110    -1.2180 hn         1 0U3       0.472800
     57 H24        -10.0500     4.1920     2.9420 hc         1 0U3       0.039922
     58 H25         -9.2360     5.8160     3.0300 hc         1 0U3       0.039922
     59 H26        -10.0530     5.2940     1.5020 hc         1 0U3       0.039922
     60 H27         -6.3760     4.9560     0.7830 hc         1 0U3       0.039922
     61 H28         -6.9110     6.0800     2.1040 hc         1 0U3       0.039922
     62 H29         -7.8380     5.9970     0.5430 hc         1 0U3       0.039922
     63 H30         -9.1280     2.4710     1.2520 hc         1 0U3       0.039922
     64 H31         -7.5590     2.8040     0.4080 hc         1 0U3       0.039922
     65 H32         -9.0340     3.7580    -0.0220 hc         1 0U3       0.039922
     66 H33         -5.9220     2.9270     1.6360 h1         1 0U3       0.055200
     67 H34         -5.2700     3.9020     3.0560 h1         1 0U3       0.055200
     68 H35         -8.0670     2.7550     3.4120 h1         1 0U3       0.059700
     69 H36         -8.1330     4.7130     4.5270 ho         1 0U3       0.410000
     70 H37          4.2340    -0.7290     0.8380 hc         1 0U3       0.061033
     71 H38          4.1810    -0.4080     2.6250 hc         1 0U3       0.061033
     72 H39          4.0220     0.9650     1.4510 hc         1 0U3       0.061033
     73 H232         1.7230     1.4640    -2.1070 hn         1 0U3       0.472800
@<TRIPOS>BOND
     1     1     2 ar  
     2     1     6 ar  
     3     1    34 1   
     4     2     3 ar  
     5     2    19 1   
     6     3     4 ar  
     7     3    33 1   
     8     4     5 ar  
     9     4    35 1   
    10     5     6 ar  
    11     5     7 1   
    12     6    36 1   
    13     7     8 1   
    14     7     9 1   
    15     7    10 1   
    16     8    13 ar  
    17     8    18 ar  
    18     9    12 1   
    19     9    37 1   
    20     9    38 1   
    21    10    11 1   
    22    10    39 1   
    23    10    40 1   
    24    11    41 1   
    25    11    42 1   
    26    11    43 1   
    27    12    44 1   
    28    12    45 1   
    29    12    46 1   
    30    13    14 ar  
    31    13    47 1   
    32    14    15 ar  
    33    14    16 1   
    34    15    17 ar  
    35    15    30 1   
    36    16    48 1   
    37    16    49 1   
    38    16    50 1   
    39    17    18 ar  
    40    17    51 1   
    41    18    52 1   
    42    19    21 1   
    43    20    23 1   
    44    20    53 1   
    45    21    22 1   
    46    21    54 1   
    47    21    55 1   
    48    22    23 1   
    49    22    24 2   
    50    23    56 1   
    51    23    73 1   
    52    25    26 1   
    53    25    27 1   
    54    25    28 1   
    55    25    31 1   
    56    26    57 1   
    57    26    58 1   
    58    26    59 1   
    59    27    60 1   
    60    27    61 1   
    61    27    62 1   
    62    28    63 1   
    63    28    64 1   
    64    28    65 1   
    65    29    30 1   
    66    29    31 1   
    67    29    66 1   
    68    29    67 1   
    69    31    32 1   
    70    31    68 1   
    71    32    69 1   
    72    33    70 1   
    73    33    71 1   
    74    33    72 1   
@<TRIPOS>SUBSTRUCTURE
     1 0U3         1 TEMP              0 ****  ****    0 ROOT
