@<TRIPOS>MOLECULE
molecule
   72    73     1     0     0
SMALL
bcc


@<TRIPOS>ATOM
      1 C1           0.0000     0.0000     0.0000 ca         1 0U3      -0.221000
      2 C2           1.3870     0.0000     0.0000 ca         1 0U3       0.130100
      3 C3           2.0780     0.0000     1.2030 ca         1 0U3      -0.099300
      4 C4           1.3850     0.0000     2.3970 ca         1 0U3      -0.090000
      5 C5           0.0020    -0.0010     2.3950 ca         1 0U3      -0.097300
      6 C6          -0.6900    -0.0000     1.1980 ca         1 0U3      -0.101000
      7 C7          -0.7530    -0.0020     3.7000 c3         1 0U3       0.040600
      8 C8          -2.2220    -0.2040     3.4300 ca         1 0U3      -0.110300
      9 C9          -0.2360    -1.1370     4.5860 c3         1 0U3      -0.070400
     10 C10         -0.5440     1.3360     4.4100 c3         1 0U3      -0.070400
     11 C11         -0.9250     2.4800     3.4680 c3         1 0U3      -0.098600
     12 C12         -0.3150    -2.4580     3.8200 c3         1 0U3      -0.098600
     13 C13         -2.6420    -1.2770     2.6660 ca         1 0U3      -0.096000
     14 C14         -3.9880    -1.4640     2.4170 ca         1 0U3      -0.118300
     15 C15         -4.9180    -0.5740     2.9350 ca         1 0U3       0.143100
     16 C16         -4.4450    -2.6330     1.5830 c3         1 0U3      -0.034800
     17 C17         -4.4930     0.5000     3.7020 ca         1 0U3      -0.220000
     18 C18         -3.1470     0.6800     3.9520 ca         1 0U3      -0.094000
     19 O19          2.0670     0.0000    -1.1770 os         1 0U3      -0.292900
     20 O22          2.5570    -0.0010    -5.9380 oh         1 0U3      -0.355100
     21 C20          1.2900    -0.0000    -2.3750 c3         1 0U3       0.077400
     22 C21          2.2080    -0.0010    -3.5700 c          1 0U3       0.666100
     23 N23          1.6940    -0.0010    -4.8160 ns         1 0U3      -0.477400
     24 O24          3.4100    -0.0010    -3.4100 o          1 0U3      -0.537100
     25 C25         -9.5320     0.9200     3.3760 c3         1 0U3      -0.075000
     26 C26         -9.1600     2.2570     2.7320 c3         1 0U3      -0.083433
     27 C27         -9.4210     1.0380     4.8970 c3         1 0U3      -0.083433
     28 C28        -10.9680     0.5530     2.9960 c3         1 0U3      -0.083433
     29 C29         -7.1440     0.1980     3.2560 c3         1 0U3       0.118400
     30 O30         -6.2430    -0.7560     2.6910 os         1 0U3      -0.331900
     31 C31         -8.5790    -0.1680     2.8770 c3         1 0U3       0.160100
     32 O32         -8.9270    -1.4170     3.4780 oh         1 0U3      -0.597800
     33 C33          3.5860    -0.0000     1.2060 c3         1 0U3      -0.037800
     34 H1          -0.5420     0.0000    -0.9380 ha         1 0U3       0.127000
     35 H2           1.9250    -0.0000     3.3360 ha         1 0U3       0.139000
     36 H3          -1.7730    -0.0010     1.1990 ha         1 0U3       0.150000
     37 H4           0.7930    -0.9400     4.8620 hc         1 0U3       0.044950
     38 H5          -0.8430    -1.2020     5.4810 hc         1 0U3       0.044950
     39 H6          -1.1660     1.3760     5.2960 hc         1 0U3       0.044950
     40 H7           0.4970     1.4350     4.6950 hc         1 0U3       0.044950
     41 H8          -1.4620     3.2400     4.0220 hc         1 0U3       0.038200
     42 H9          -0.0270     2.9100     3.0410 hc         1 0U3       0.038200
     43 H10         -1.5560     2.0990     2.6740 hc         1 0U3       0.038200
     44 H11         -0.1710    -2.2720     2.7630 hc         1 0U3       0.038200
     45 H12         -1.2860    -2.9110     3.9790 hc         1 0U3       0.038200
     46 H13          0.4580    -3.1290     4.1760 hc         1 0U3       0.038200
     47 H14         -1.9160    -1.9710     2.2610 ha         1 0U3       0.151000
     48 H15         -4.9690    -2.2700     0.7070 hc         1 0U3       0.042700
     49 H16         -5.1100    -3.2570     2.1690 hc         1 0U3       0.042700
     50 H17         -3.5850    -3.2150     1.2740 hc         1 0U3       0.042700
     51 H18         -5.2180     1.1950     4.1090 ha         1 0U3       0.134000
     52 H19         -2.8150     1.5200     4.5510 ha         1 0U3       0.141000
     53 H20          2.0440     0.0060    -6.7300 ho         1 0U3       0.400000
     54 H21          0.6640    -0.8850    -2.4000 h1         1 0U3       0.052700
     55 H22          0.6650     0.8840    -2.4010 h1         1 0U3       0.052700
     56 H23          0.7020     0.0100    -4.9480 hn         1 0U3       0.316500
     57 H24         -8.3410     2.7070     3.2800 hc         1 0U3       0.038922
     58 H25         -8.8590     2.0920     1.7040 hc         1 0U3       0.038922
     59 H26        -10.0170     2.9200     2.7550 hc         1 0U3       0.038922
     60 H27        -10.2080     1.6840     5.2680 hc         1 0U3       0.038922
     61 H28         -8.4570     1.4590     5.1570 hc         1 0U3       0.038922
     62 H29         -9.5180     0.0560     5.3440 hc         1 0U3       0.038922
     63 H30        -11.2840    -0.3100     3.5690 hc         1 0U3       0.038922
     64 H31        -11.6230     1.3890     3.2110 hc         1 0U3       0.038922
     65 H32        -11.0140     0.3220     1.9390 hc         1 0U3       0.038922
     66 H33         -6.9100     1.1850     2.8740 h1         1 0U3       0.048200
     67 H34         -7.0430     0.1960     4.3350 h1         1 0U3       0.048200
     68 H35         -8.6580    -0.2520     1.8000 h1         1 0U3       0.042700
     69 H36         -9.0490    -2.0660     2.8060 ho         1 0U3       0.407000
     70 H37          3.9450     0.0340     2.2280 hc         1 0U3       0.047700
     71 H38          3.9480    -0.9010     0.7260 hc         1 0U3       0.047700
     72 H39          3.9480     0.8670     0.6670 hc         1 0U3       0.047700
@<TRIPOS>BOND
     1    27    25 1
     2    26    25 1
     3    28    25 1
     4    25    31 1
     5    31    29 1
     6    31    32 1
     7    29    30 1
     8    30    15 1
     9    17    15 ar
    10    17    18 ar
    11    15    14 ar
    12    18     8 ar
    13    20    23 1
    14    23    22 1
    15    12     9 1
    16     1     2 ar
    17     1     6 ar
    18    19     2 1
    19    19    21 1
    20    14    16 1
    21    14    13 ar
    22     2     3 ar
    23     6     5 ar
    24     8    13 ar
    25     8     7 1
    26    22    21 1
    27    22    24 2
    28     5     4 ar
    29     5     7 1
    30     3     4 ar
    31     3    33 1
    32     9     7 1
    33     7    10 1
    34    10    11 1
    35     1    34 1
    36     4    35 1
    37     6    36 1
    38     9    37 1
    39     9    38 1
    40    10    39 1
    41    10    40 1
    42    11    41 1
    43    11    42 1
    44    11    43 1
    45    12    44 1
    46    12    45 1
    47    12    46 1
    48    13    47 1
    49    16    48 1
    50    16    49 1
    51    16    50 1
    52    17    51 1
    53    18    52 1
    54    20    53 1
    55    21    54 1
    56    21    55 1
    57    23    56 1
    58    26    57 1
    59    26    58 1
    60    26    59 1
    61    27    60 1
    62    27    61 1
    63    27    62 1
    64    28    63 1
    65    28    64 1
    66    28    65 1
    67    29    66 1
    68    29    67 1
    69    31    68 1
    70    32    69 1
    71    33    70 1
    72    33    71 1
    73    33    72 1
@<TRIPOS>SUBSTRUCTURE
     1 0U3         1 TEMP              0 ****  ****    0 ROOT
