@<TRIPOS>MOLECULE
0U5
   76    79     1     0     0
SMALL
bcc


@<TRIPOS>ATOM
      1 N01          2.2300     2.8790     0.8330 nv         1 0U5      -0.902500
      2 C02          2.8850     1.7320     0.3740 ca         1 0U5       0.700200
      3 C03          3.0300     0.5810     1.2300 ca         1 0U5      -0.415900
      4 C04          2.4980     0.5860     2.6140 c3         1 0U5       0.032200
      5 C05          3.4010     1.1530     3.6600 ca         1 0U5      -0.064300
      6 C06          3.2450     0.7060     4.9800 ca         1 0U5      -0.174000
      7 C07          4.0390     1.2280     6.0030 ca         1 0U5       0.075100
      8 O08          3.9500     0.8280     7.3260 os         1 0U5      -0.335900
      9 C09          2.9330    -0.1210     7.6290 c3         1 0U5       0.113700
     10 C10          5.0110     2.2130     5.7150 ca         1 0U5       0.104100
     11 O11          5.8020     2.8370     6.6610 os         1 0U5      -0.335900
     12 C12          6.2500     2.0260     7.7460 c3         1 0U5       0.123700
     13 C13          5.1500     2.6770     4.3920 ca         1 0U5      -0.080800
     14 C14          6.1420     3.7040     4.0980 ce         1 0U5      -0.026200
     15 C15          5.9360     4.8580     3.4570 cf         1 0U5      -0.233200
     16 C16          4.6420     5.3100     2.8850 c          1 0U5       0.709300
     17 N17          4.0350     6.4300     3.5160 n          1 0U5      -0.246800
     18 N18          2.9010     6.9390     3.0070 n2         1 0U5      -0.410300
     19 C19          2.2110     7.8220     3.6770 ce         1 0U5       0.365800
     20 C20          4.7250     7.0410     4.6800 c3         1 0U5       0.172200
     21 C21          5.8790     7.9100     4.2510 c2         1 0U5      -0.204200
     22 C22          7.1210     7.8480     4.7560 c2         1 0U5      -0.097400
     23 C23          7.5490     6.8860     5.8010 c3         1 0U5      -0.068900
     24 C24          3.7990     7.8860     5.5310 ca         1 0U5      -0.076300
     25 C25          2.5640     8.3110     5.0060 ca         1 0U5      -0.150900
     26 C26          1.7180     9.1220     5.7650 ca         1 0U5      -0.102000
     27 C27          2.0980     9.5010     7.0510 ca         1 0U5      -0.128000
     28 C28          3.3140     9.0670     7.5800 ca         1 0U5      -0.120000
     29 C29          4.1650     8.2600     6.8240 ca         1 0U5      -0.115000
     30 O30          4.1300     4.7510     1.9010 o          1 0U5      -0.577100
     31 C31          4.3540     2.1310     3.3790 ca         1 0U5      -0.116000
     32 C32          3.6410    -0.5580     0.6580 ca         1 0U5       0.510600
     33 N33          4.0650    -0.5980    -0.6250 nb         1 0U5      -0.789000
     34 C34          3.8560     0.5390    -1.3890 ca         1 0U5       0.892900
     35 N35          4.1750     0.4700    -2.7550 nv         1 0U5      -0.922500
     36 N36          3.3150     1.7200    -0.9240 nb         1 0U5      -0.812000
     37 C37          8.1780     8.7810     4.2880 c3         1 0U5      -0.068900
     38 C38          3.8560    -1.8180     1.4590 c3         1 0U5      -0.135700
     39 C39          5.0380    -1.6770     2.3980 c3         1 0U5      -0.082400
     40 C40          5.2640    -2.9450     3.1810 c3         1 0U5      -0.091100
     41 HN01         2.3450     3.6990     0.2720 hn         1 0U5       0.416800
     42 HN0A         2.3790     3.0630     1.8050 hn         1 0U5       0.416800
     43 H04          1.5270     1.1590     2.6510 hc         1 0U5       0.058700
     44 H04A         2.2300    -0.4670     2.9130 hc         1 0U5       0.058700
     45 H06          2.4870    -0.0610     5.1990 ha         1 0U5       0.141000
     46 H09          3.0300    -0.2580     8.7360 h1         1 0U5       0.045700
     47 H09A         3.1210    -1.0840     7.0960 h1         1 0U5       0.045700
     48 H09B         1.9240     0.2820     7.3690 h1         1 0U5       0.045700
     49 H12          7.1580     2.5630     8.1210 h1         1 0U5       0.046700
     50 H12A         6.5060     0.9950     7.4080 h1         1 0U5       0.046700
     51 H12B         5.4570     1.9920     8.5330 h1         1 0U5       0.046700
     52 H14          7.1510     3.4800     4.4970 ha         1 0U5       0.142000
     53 H15          6.7630     5.5730     3.2920 ha         1 0U5       0.159000
     54 H20          5.1020     6.1870     5.3240 h1         1 0U5       0.083700
     55 H23          7.2520     5.8400     5.5320 hc         1 0U5       0.046700
     56 H23A         8.6590     6.9090     5.9360 hc         1 0U5       0.046700
     57 H22          7.0750     7.1410     6.7820 hc         1 0U5       0.046700
     58 H26          0.7550     9.4530     5.3470 ha         1 0U5       0.138000
     59 H27          1.4350    10.1410     7.6520 ha         1 0U5       0.136000
     60 H28          3.6060     9.3630     8.5990 ha         1 0U5       0.135000
     61 H29          5.1230     7.9210     7.2450 ha         1 0U5       0.138000
     62 H31          4.5030     2.4850     2.3440 ha         1 0U5       0.165000
     63 HN35         4.2800     1.3410    -3.2210 hn         1 0U5       0.419300
     64 HN3A         4.8220    -0.2390    -3.0140 hn         1 0U5       0.419300
     65 H37          7.7900     9.5010     3.5270 hc         1 0U5       0.046700
     66 H37A         9.0210     8.2050     3.8310 hc         1 0U5       0.046700
     67 H37B         8.5810     9.3640     5.1530 hc         1 0U5       0.046700
     68 H38          4.0370    -2.6920     0.7750 hc         1 0U5       0.058700
     69 H38A         2.9240    -2.0530     2.0370 hc         1 0U5       0.058700
     70 H39          4.8540    -0.8220     3.1030 hc         1 0U5       0.051200
     71 H36          5.9570    -1.4310     1.8040 hc         1 0U5       0.051200
     72 H40          5.4780    -3.8000     2.4950 hc         1 0U5       0.032033
     73 H40A         6.1320    -2.8220     3.8720 hc         1 0U5       0.032033
     74 H391         4.3630    -3.2020     3.7880 hc         1 0U5       0.032033
     75 H21          5.6310     8.6570     3.4770 ha         1 0U5       0.139000
     76 H19          1.2940     8.1950     3.1870 h4         1 0U5       0.044800
@<TRIPOS>BOND
     1     1     2 1   
     2     1    41 1   
     3     1    42 1   
     4     2     3 ar  
     5     2    36 ar  
     6     3     4 1   
     7     3    32 ar  
     8     4     5 1   
     9     4    43 1   
    10     4    44 1   
    11     5     6 ar  
    12     5    31 ar  
    13     6     7 ar  
    14     6    45 1   
    15     7     8 1   
    16     7    10 ar  
    17     8     9 1   
    18     9    46 1   
    19     9    47 1   
    20     9    48 1   
    21    10    11 1   
    22    10    13 ar  
    23    11    12 1   
    24    12    49 1   
    25    12    50 1   
    26    12    51 1   
    27    13    14 1   
    28    13    31 ar  
    29    14    15 2   
    30    14    52 1   
    31    15    16 1   
    32    15    53 1   
    33    16    17 1   
    34    16    30 2   
    35    17    18 1   
    36    17    20 1   
    37    18    19 2   
    38    19    25 1   
    39    19    76 1   
    40    20    21 1   
    41    20    24 1   
    42    20    54 1   
    43    21    22 2   
    44    21    75 1   
    45    22    23 1   
    46    22    37 1   
    47    23    55 1   
    48    23    56 1   
    49    23    57 1   
    50    24    25 ar  
    51    24    29 ar  
    52    25    26 ar  
    53    26    27 ar  
    54    26    58 1   
    55    27    28 ar  
    56    27    59 1   
    57    28    29 ar  
    58    28    60 1   
    59    29    61 1   
    60    31    62 1   
    61    32    33 ar  
    62    32    38 1   
    63    33    34 ar  
    64    34    35 1   
    65    34    36 ar  
    66    35    63 1   
    67    35    64 1   
    68    37    65 1   
    69    37    66 1   
    70    37    67 1   
    71    38    39 1   
    72    38    68 1   
    73    38    69 1   
    74    39    40 1   
    75    39    70 1   
    76    39    71 1   
    77    40    72 1   
    78    40    73 1   
    79    40    74 1   
@<TRIPOS>SUBSTRUCTURE
     1 0U5         1 TEMP              0 ****  ****    0 ROOT
