@<TRIPOS>MOLECULE
0U5
   76    81     1     0     0
SMALL
bcc


@<TRIPOS>ATOM
      1 N01          0.0000     0.0000     0.0000 nv         1 0U5       0.070000
      2 C02          1.3850     0.0000     0.0000 c2         1 0U5       0.068000
      3 C03          2.0930     0.0000     1.2030 c2         1 0U5      -0.333000
      4 C04          1.3680    -0.0000     2.5240 c3         1 0U5       0.017000
      5 C05          1.0090     1.4140     2.9000 c2         1 0U5      -0.007000
      6 C06          1.8920     2.1720     3.6500 c2         1 0U5      -0.245000
      7 C07          1.5750     3.4740     4.0040 c2         1 0U5       0.122000
      8 O08          2.4470     4.2110     4.7410 os         1 0U5      -0.175000
      9 C09          3.6750     3.5800     5.1150 c3         1 0U5       0.049000
     10 C10          0.3620     4.0260     3.6040 c2         1 0U5      -0.023000
     11 O11          0.0480     5.3020     3.9480 os         1 0U5      -0.191000
     12 C12          0.4430     6.3340     3.0410 c3         1 0U5       0.055000
     13 C13         -0.5320     3.2590     2.8440 c3         1 0U5       0.023000
     14 C14         -1.8160     3.8320     2.4160 c2         1 0U5       0.039000
     15 C15         -2.7240     3.0560     1.7860 c2         1 0U5      -0.101000
     16 C16         -4.0440     3.5930     1.4590 c3         1 0U5       0.367000
     17 N17         -4.9860     2.7890     0.9260 n3         1 0U5       0.026000
     18 N18         -4.7420     1.4160     0.7760 n2         1 0U5      -0.099000
     19 C19         -5.7220     0.5680     0.8740 c2         1 0U5      -0.029000
     20 C20         -6.2790     3.3440     0.5040 c3         1 0U5       0.016000
     21 C21         -6.3170     3.4550    -0.9980 c2         1 0U5      -0.213000
     22 C22         -6.5960     4.6040    -1.5630 c2         1 0U5      -0.089000
     23 C23         -6.6210     4.7180    -3.0650 c3         1 0U5      -0.077500
     24 C24         -7.3720     2.4150     0.9700 ca         1 0U5      -0.065000
     25 C25         -7.0860     1.0610     1.1420 ca         1 0U5      -0.104000
     26 C26         -8.0900     0.1910     1.5700 ca         1 0U5      -0.062000
     27 C27         -9.3560     0.6800     1.8160 ca         1 0U5      -0.104000
     28 C28         -9.6320     2.0250     1.6390 ca         1 0U5      -0.079000
     29 C29         -8.6410     2.8860     1.2250 ca         1 0U5      -0.088000
     30 O30         -4.2920     4.7660     1.6690 o          1 0U5      -0.439000
     31 C31         -0.1930     1.9480     2.4920 c2         1 0U5      -0.196000
     32 C32          3.4730    -0.0010     1.1550 c2         1 0U5       0.086000
     33 N33          4.0810    -0.0000    -0.0220 n2         1 0U5      -0.217000
     34 C34          3.3840    -0.0000    -1.1490 c2         1 0U5       0.031000
     35 N35          4.0560    -0.0000    -2.3580 nv         1 0U5       0.101000
     36 N36          2.0590    -0.0060    -1.1460 n2         1 0U5      -0.248000
     37 C37         -6.8940     5.8110    -0.7100 c3         1 0U5      -0.077500
     38 C38          4.2800    -0.0000     2.4290 c3         1 0U5      -0.083000
     39 C39          4.6230    -1.4400     2.8150 c3         1 0U5      -0.102000
     40 C40          5.3360    -1.4480     4.1690 c3         1 0U5      -0.113000
     41 HN01        -0.4990     0.1260    -0.8580 hn         1 0U5       0.075000
     42 HN0A        -0.5000    -0.1990     0.8440 hn         1 0U5       0.075000
     43 H04          2.0070    -0.4260     3.2870 hc         1 0U5       0.063000
     44 H04A         0.4640    -0.5910     2.4390 hc         1 0U5       0.063000
     45 H06          2.8310     1.7400     3.9750 ha         1 0U5       0.135000
     46 H09          3.4610     2.6610     5.6470 h1         1 0U5       0.037667
     47 H09A         4.2520     3.3570     4.2260 h1         1 0U5       0.037667
     48 H09B         4.2410     4.2450     5.7560 h1         1 0U5       0.037667
     49 H12         -0.3740     6.5530     2.3650 h1         1 0U5       0.031000
     50 H12A         0.6980     7.2270     3.6000 h1         1 0U5       0.031000
     51 H12B         1.3050     6.0060     2.4730 h1         1 0U5       0.031000
     52 H14         -0.9800     3.7210     1.7360 DU         1 0U5       0.075000
     53 H15         -2.8970     3.6590     0.9030 DU         1 0U5       0.027000
     54 H20         -6.4180     4.3210     0.9510 h1         1 0U5       0.130000
     55 H23         -5.6980     4.3240    -3.4730 hc         1 0U5       0.053667
     56 H23A        -7.4590     4.1540    -3.4560 hc         1 0U5       0.053667
     57 H22         -6.7240     5.7590    -3.3470 hc         1 0U5       0.053667
     58 H26         -7.8750    -0.8610     1.7080 ha         1 0U5       0.107000
     59 H27        -10.1400     0.0070     2.1420 ha         1 0U5       0.107000
     60 H28        -10.6290     2.4020     1.8340 ha         1 0U5       0.106000
     61 H29         -8.8620     3.9370     1.0880 ha         1 0U5       0.112000
     62 H31         -0.8800     1.3500     1.9050 ha         1 0U5       0.128000
     63 HN35         3.5410     0.0010    -3.2160 hn         1 0U5       0.068000
     64 HN3A         5.0560     0.0030    -2.3740 hn         1 0U5       0.068000
     65 H37         -7.7640     5.6120    -0.0960 hc         1 0U5       0.053667
     66 H37A        -7.0890     6.6640    -1.3480 hc         1 0U5       0.053667
     67 H37B        -6.0430     6.0220    -0.0740 hc         1 0U5       0.053667
     68 H38          5.1940     0.5610     2.2770 hc         1 0U5       0.072000
     69 H38A         3.7010     0.4580     3.2220 hc         1 0U5       0.072000
     70 H39          5.2720    -1.8710     2.0630 hc         1 0U5       0.058500
     71 H36          3.7120    -2.0230     2.8830 hc         1 0U5       0.058500
     72 H40          4.6750    -1.0450     4.9270 hc         1 0U5       0.039333
     73 H40A         5.6070    -2.4640     4.4290 hc         1 0U5       0.039333
     74 H391         6.2300    -0.8390     4.1100 hc         1 0U5       0.039333
     75 H21         -6.1430     2.5780    -1.6110 ha         1 0U5       0.117000
     76 H19         -5.5390    -0.4930     0.7590 h4         1 0U5       0.128000
@<TRIPOS>BOND
     1     1     2 1   
     2     1    41 1   
     3     1    42 1   
     4     2     3 1   
     5     2    36 1   
     6     3     4 1   
     7     3    32 1   
     8     4     5 1   
     9     4    43 1   
    10     4    44 1   
    11     5     6 1   
    12     5    31 1   
    13     6     7 1   
    14     6    45 1   
    15     7     8 1   
    16     7    10 1   
    17     8     9 1   
    18     9    46 1   
    19     9    47 1   
    20     9    48 1   
    21    10    11 1   
    22    10    13 1   
    23    11    12 1   
    24    12    49 1   
    25    12    50 1   
    26    12    51 1   
    27    13    14 1   
    28    13    31 1   
    29    13    52 1   
    30    14    15 1   
    31    14    52 1   
    32    15    16 1   
    33    15    53 1   
    34    16    17 1   
    35    16    30 1   
    36    16    53 1   
    37    17    18 1   
    38    17    20 1   
    39    18    19 1   
    40    19    25 1   
    41    19    76 1   
    42    20    21 1   
    43    20    24 1   
    44    20    54 1   
    45    21    22 1   
    46    21    75 1   
    47    22    23 1   
    48    22    37 1   
    49    23    55 1   
    50    23    56 1   
    51    23    57 1   
    52    24    25 1   
    53    24    29 1   
    54    25    26 1   
    55    26    27 1   
    56    26    58 1   
    57    27    28 1   
    58    27    59 1   
    59    28    29 1   
    60    28    60 1   
    61    29    61 1   
    62    31    62 1   
    63    32    33 1   
    64    32    38 1   
    65    33    34 1   
    66    34    35 1   
    67    34    36 1   
    68    35    63 1   
    69    35    64 1   
    70    37    65 1   
    71    37    66 1   
    72    37    67 1   
    73    38    39 1   
    74    38    68 1   
    75    38    69 1   
    76    39    40 1   
    77    39    70 1   
    78    39    71 1   
    79    40    72 1   
    80    40    73 1   
    81    40    74 1   
@<TRIPOS>SUBSTRUCTURE
     1 0U5         1 TEMP              0 ****  ****    0 ROOT
