@<TRIPOS>MOLECULE
molecule
   76    79     1     0     0
SMALL
bcc


@<TRIPOS>ATOM
      1 N01          0.0000     0.0000     0.0000 nv         1 0U5      -1.006500
      2 C02          1.3850     0.0000     0.0000 ca         1 0U5       0.776200
      3 C03          2.0930     0.0000     1.2030 ca         1 0U5      -0.450900
      4 C04          1.3680    -0.0000     2.5240 c3         1 0U5       0.035200
      5 C05          1.0090     1.4140     2.9000 ca         1 0U5      -0.046300
      6 C06          1.8920     2.1720     3.6500 ca         1 0U5      -0.205000
      7 C07          1.5750     3.4740     4.0040 ca         1 0U5       0.125100
      8 O08          2.4470     4.2110     4.7410 os         1 0U5      -0.313900
      9 C09          3.6750     3.5800     5.1150 c3         1 0U5       0.125700
     10 C10          0.3620     4.0260     3.6040 ca         1 0U5       0.098100
     11 O11          0.0480     5.3020     3.9480 os         1 0U5      -0.338900
     12 C12          0.4430     6.3340     3.0410 c3         1 0U5       0.133700
     13 C13         -0.5320     3.2590     2.8440 ca         1 0U5      -0.057800
     14 C14         -1.8160     3.8320     2.4160 ce         1 0U5      -0.024200
     15 C15         -2.7240     3.0560     1.7860 cf         1 0U5      -0.235200
     16 C16         -4.0440     3.5930     1.4590 c          1 0U5       0.702300
     17 N17         -4.9860     2.7890     0.9260 n          1 0U5      -0.247800
     18 N18         -4.7420     1.4160     0.7760 n2         1 0U5      -0.450300
     19 C19         -5.7220     0.5680     0.8740 ce         1 0U5       0.417800
     20 C20         -6.2790     3.3440     0.5040 c3         1 0U5       0.170200
     21 C21         -6.3170     3.4550    -0.9980 c2         1 0U5      -0.204200
     22 C22         -6.5960     4.6040    -1.5630 c2         1 0U5      -0.098400
     23 C23         -6.6210     4.7180    -3.0650 c3         1 0U5      -0.060900
     24 C24         -7.3720     2.4150     0.9700 ca         1 0U5      -0.067300
     25 C25         -7.0860     1.0610     1.1420 ca         1 0U5      -0.179900
     26 C26         -8.0900     0.1910     1.5700 ca         1 0U5      -0.098000
     27 C27         -9.3560     0.6800     1.8160 ca         1 0U5      -0.131000
     28 C28         -9.6320     2.0250     1.6390 ca         1 0U5      -0.110000
     29 C29         -8.6410     2.8860     1.2250 ca         1 0U5      -0.116000
     30 O30         -4.2920     4.7660     1.6690 o          1 0U5      -0.610100
     31 C31         -0.1930     1.9480     2.4920 ca         1 0U5      -0.137000
     32 C32          3.4730    -0.0010     1.1550 ca         1 0U5       0.540600
     33 N33          4.0810    -0.0000    -0.0220 nb         1 0U5      -0.838000
     34 C34          3.3840    -0.0000    -1.1490 ca         1 0U5       0.981900
     35 N35          4.0560    -0.0000    -2.3580 nv         1 0U5      -0.990500
     36 N36          2.0590    -0.0060    -1.1460 nb         1 0U5      -0.870000
     37 C37         -6.8940     5.8110    -0.7100 c3         1 0U5      -0.060900
     38 C38          4.2800    -0.0000     2.4290 c3         1 0U5      -0.135700
     39 C39          4.6230    -1.4400     2.8150 c3         1 0U5      -0.079400
     40 C40          5.3360    -1.4480     4.1690 c3         1 0U5      -0.094100
     41 HN01        -0.4990    -0.2940     0.8160 hn         1 0U5       0.443800
     42 HN0A        -0.5000     0.2230    -0.8380 hn         1 0U5       0.443800
     43 H04          0.4640    -0.5910     2.4390 hc         1 0U5       0.050200
     44 H04A         2.0070    -0.4260     3.2870 hc         1 0U5       0.050200
     45 H06          2.8270     1.7370     3.9830 ha         1 0U5       0.141000
     46 H09          4.2440     3.3420     4.2250 h1         1 0U5       0.042033
     47 H09A         3.4610     2.6700     5.6620 h1         1 0U5       0.042033
     48 H09B         4.2490     4.2520     5.7420 h1         1 0U5       0.042033
     49 H12          0.7280     5.8940     2.0940 h1         1 0U5       0.037700
     50 H12A         1.2850     6.8760     3.4560 h1         1 0U5       0.037700
     51 H12B        -0.3850     7.0160     2.8880 h1         1 0U5       0.037700
     52 H14         -2.0670     4.8520     2.6780 ha         1 0U5       0.165000
     53 H15         -2.5050     2.0120     1.5980 ha         1 0U5       0.145000
     54 H20         -6.4180     4.3210     0.9510 h1         1 0U5       0.115700
     55 H23         -7.3170     3.9940    -3.4710 hc         1 0U5       0.046867
     56 H23A        -6.9340     5.7170    -3.3460 hc         1 0U5       0.046867
     57 H22         -5.6300     4.5260    -3.4580 hc         1 0U5       0.046867
     58 H26         -7.8750    -0.8610     1.7080 ha         1 0U5       0.133000
     59 H27        -10.1400     0.0070     2.1420 ha         1 0U5       0.134000
     60 H28        -10.6290     2.4020     1.8340 ha         1 0U5       0.135000
     61 H29         -8.8620     3.9370     1.0880 ha         1 0U5       0.138000
     62 H31         -0.8800     1.3500     1.9050 ha         1 0U5       0.137000
     63 HN35         3.5410    -0.0010    -3.2160 hn         1 0U5       0.448800
     64 HN3A         5.0560     0.0020    -2.3740 hn         1 0U5       0.448800
     65 H37         -6.1510     6.5770    -0.8960 hc         1 0U5       0.046867
     66 H37A        -7.8770     6.1940    -0.9570 hc         1 0U5       0.046867
     67 H37B        -6.8690     5.5290     0.3350 hc         1 0U5       0.046867
     68 H38          3.7020     0.4590     3.2220 hc         1 0U5       0.059700
     69 H38A         5.1940     0.5610     2.2770 hc         1 0U5       0.059700
     70 H39          5.2730    -1.8700     2.0630 hc         1 0U5       0.050200
     71 H36          3.7130    -2.0230     2.8820 hc         1 0U5       0.050200
     72 H40          6.1220    -0.7030     4.1680 hc         1 0U5       0.034033
     73 H40A         5.7660    -2.4260     4.3460 hc         1 0U5       0.034033
     74 H391         4.6240    -1.2190     4.9530 hc         1 0U5       0.034033
     75 H21         -6.1030     2.5880    -1.6110 ha         1 0U5       0.134000
     76 H19         -5.5390    -0.4930     0.7590 h4         1 0U5       0.048800
@<TRIPOS>BOND
     1     1    41 1   
     2     1    42 1   
     3     2     1 1   
     4     2    36 ar  
     5     3     2 ar  
     6     4     3 1   
     7     4    43 1   
     8     4    44 1   
     9     5     4 1   
    10     5    31 ar  
    11     6     5 ar  
    12     6    45 1   
    13     7     6 ar  
    14     7    10 ar  
    15     8     7 1   
    16     9     8 1   
    17     9    46 1   
    18     9    47 1   
    19     9    48 1   
    20    10    13 ar  
    21    11    10 1   
    22    12    11 1   
    23    12    49 1   
    24    12    50 1   
    25    12    51 1   
    26    13    14 1   
    27    13    31 ar  
    28    14    15 2   
    29    14    52 1   
    30    15    16 1   
    31    15    53 1   
    32    16    17 1   
    33    17    20 1   
    34    17    18 1   
    35    18    19 2   
    36    19    25 1   
    37    20    24 1   
    38    20    54 1   
    39    21    20 1   
    40    21    75 1   
    41    22    21 2   
    42    22    37 1   
    43    23    22 1   
    44    23    55 1   
    45    23    56 1   
    46    23    57 1   
    47    24    29 ar  
    48    24    25 ar  
    49    25    26 ar  
    50    26    27 ar  
    51    26    58 1   
    52    27    59 1   
    53    28    27 ar  
    54    28    60 1   
    55    29    28 ar  
    56    29    61 1   
    57    30    16 2   
    58    31    62 1   
    59    32     3 ar  
    60    32    33 ar  
    61    33    34 ar  
    62    34    35 1   
    63    34    36 ar  
    64    35    63 1   
    65    35    64 1   
    66    37    65 1   
    67    37    66 1   
    68    37    67 1   
    69    38    32 1   
    70    38    39 1   
    71    38    68 1   
    72    38    69 1   
    73    39    70 1   
    74    39    71 1   
    75    40    39 1   
    76    40    72 1   
    77    40    73 1   
    78    40    74 1   
    79    19    76 1   
@<TRIPOS>SUBSTRUCTURE
     1 0U5         1 TEMP              0 ****  ****    0 ROOT
