@<TRIPOS>MOLECULE
0U6
   73    76     1     0     0
SMALL
bcc


@<TRIPOS>ATOM
      1 N01          2.1250     2.7480     0.6330 nv         1 0U6      -0.902500
      2 C02          2.6630     1.5110     0.2680 ca         1 0U6       0.700200
      3 C03          2.7630     0.4420     1.2310 ca         1 0U6      -0.415900
      4 C04          2.3090     0.6300     2.6300 c3         1 0U6       0.033200
      5 C05          3.3130     1.2110     3.5710 ca         1 0U6      -0.063300
      6 C06          3.2070     0.8930     4.9330 ca         1 0U6      -0.174000
      7 C07          4.0970     1.4390     5.8590 ca         1 0U6       0.075100
      8 O08          4.0600     1.1630     7.2160 os         1 0U6      -0.335900
      9 C09          2.9940     0.3300     7.6590 c3         1 0U6       0.113700
     10 C10          5.1190     2.3160     5.4310 ca         1 0U6       0.104100
     11 O11          6.0090     2.9570     6.2710 os         1 0U6      -0.335900
     12 C12          6.4630     2.2110     7.4000 c3         1 0U6       0.123700
     13 C13          5.2120     2.6510     4.0650 ca         1 0U6      -0.080800
     14 C14          6.2550     3.5670     3.6250 ce         1 0U6      -0.026200
     15 C15          6.0980     4.6700     2.8880 cf         1 0U6      -0.234200
     16 C16          4.8090     5.1660     2.3380 c          1 0U6       0.709300
     17 N17          4.3180     6.3800     2.8910 n          1 0U6      -0.246800
     18 N18          3.1960     6.9250     2.3930 n2         1 0U6      -0.410300
     19 C19          2.6080     7.9140     3.0100 ce         1 0U6       0.365800
     20 C20          5.1140     7.0400     3.9580 c3         1 0U6       0.172200
     21 C21          6.3000     7.7780     3.3920 c2         1 0U6      -0.204200
     22 C22          7.5610     7.6670     3.8390 c2         1 0U6      -0.097400
     23 C23          7.9780     6.7750     4.9480 c3         1 0U6      -0.068900
     24 C24          4.2980     8.0260     4.7690 ca         1 0U6      -0.076300
     25 C25          3.0690     8.4930     4.2690 ca         1 0U6      -0.150900
     26 C26          2.3260     9.4300     4.9890 ca         1 0U6      -0.102000
     27 C27          2.8030     9.8950     6.2130 ca         1 0U6      -0.128000
     28 C28          4.0140     9.4200     6.7200 ca         1 0U6      -0.120000
     29 C29          4.7610     8.4860     6.0020 ca         1 0U6      -0.115000
     30 O30          4.2060     4.5620     1.4360 o          1 0U6      -0.577100
     31 C31          4.3170     2.0830     3.1500 ca         1 0U6      -0.116000
     32 C32          3.2510    -0.7950     0.7540 ca         1 0U6       0.510600
     33 N33          3.6010    -0.9990    -0.5360 nb         1 0U6      -0.789000
     34 C34          3.4440     0.0700    -1.4030 ca         1 0U6       0.892900
     35 N35          3.6840    -0.1610    -2.7670 nv         1 0U6      -0.922500
     36 N36          3.0220     1.3330    -1.0400 nb         1 0U6      -0.812000
     37 C37          8.6530     8.4730     3.2330 c3         1 0U6      -0.068900
     38 C38          3.4080    -1.9820     1.6730 c3         1 0U6      -0.135700
     39 C39          4.6340    -1.8490     2.5410 c3         1 0U6      -0.094100
     40 HN01         2.3380     3.0160     1.5720 hn         1 0U6       0.416800
     41 HN0A         2.2730     3.4940    -0.0160 hn         1 0U6       0.416800
     42 H04          1.9680    -0.3600     3.0460 hc         1 0U6       0.058700
     43 H04A         1.3940     1.2900     2.6540 hc         1 0U6       0.058700
     44 H06          2.4090     0.2110     5.2620 ha         1 0U6       0.141000
     45 H09          3.0760    -0.6890     7.2080 h1         1 0U6       0.045700
     46 H09A         3.1480     0.2840     8.7680 h1         1 0U6       0.045700
     47 H09B         2.0050     0.7890     7.4180 h1         1 0U6       0.045700
     48 H12          7.4280     2.7060     7.6740 h1         1 0U6       0.046700
     49 H12A         5.7190     2.3070     8.2290 h1         1 0U6       0.046700
     50 H12B         6.6220     1.1380     7.1440 h1         1 0U6       0.046700
     51 H14          7.2670     3.3050     3.9930 ha         1 0U6       0.143000
     52 H15          6.9630     5.3010     2.6140 ha         1 0U6       0.159000
     53 H20          5.4650     6.2210     4.6590 h1         1 0U6       0.083700
     54 H26          1.3670     9.7940     4.5900 ha         1 0U6       0.138000
     55 H27          2.2220    10.6340     6.7830 ha         1 0U6       0.136000
     56 H28          4.3820     9.7830     7.6910 ha         1 0U6       0.135000
     57 H29          5.7160     8.1160     6.4050 ha         1 0U6       0.138000
     58 H31          4.4290     2.3310     2.0810 ha         1 0U6       0.165000
     59 HN35         3.8340     0.6470    -3.3260 hn         1 0U6       0.419300
     60 HN3A         4.2580    -0.9440    -2.9800 hn         1 0U6       0.419300
     61 H37          9.4260     7.7960     2.7920 hc         1 0U6       0.046700
     62 H37A         9.1440     9.0990     4.0190 hc         1 0U6       0.046700
     63 H37B         8.2740     9.1490     2.4280 hc         1 0U6       0.046700
     64 H38          2.4870    -2.0790     2.3060 hc         1 0U6       0.057700
     65 H38A         3.4840    -2.9310     1.0740 hc         1 0U6       0.057700
     66 H39          5.5550    -1.7870     1.9120 hc         1 0U6       0.040367
     67 H39A         4.5730    -0.9280     3.1720 hc         1 0U6       0.040367
     68 H39B         4.7220    -2.7370     3.2120 hc         1 0U6       0.040367
     69 H21          6.0620     8.4680     2.5650 ha         1 0U6       0.139000
     70 H23          7.5790     7.1510     5.9230 hc         1 0U6       0.046700
     71 H23A         9.0920     6.7260     5.0260 hc         1 0U6       0.046700
     72 H33          7.5940     5.7330     4.7930 hc         1 0U6       0.046700
     73 H19          1.6940     8.3090     2.5340 h4         1 0U6       0.044800
@<TRIPOS>BOND
     1     1     2 1   
     2     1    40 1   
     3     1    41 1   
     4     2     3 ar  
     5     2    36 ar  
     6     3     4 1   
     7     3    32 ar  
     8     4     5 1   
     9     4    42 1   
    10     4    43 1   
    11     5     6 ar  
    12     5    31 ar  
    13     6     7 ar  
    14     6    44 1   
    15     7     8 1   
    16     7    10 ar  
    17     8     9 1   
    18     9    45 1   
    19     9    46 1   
    20     9    47 1   
    21    10    11 1   
    22    10    13 ar  
    23    11    12 1   
    24    12    48 1   
    25    12    49 1   
    26    12    50 1   
    27    13    14 1   
    28    13    31 ar  
    29    14    15 2   
    30    14    51 1   
    31    15    16 1   
    32    15    52 1   
    33    16    17 1   
    34    16    30 2   
    35    17    18 1   
    36    17    20 1   
    37    18    19 2   
    38    19    25 1   
    39    19    73 1   
    40    20    21 1   
    41    20    24 1   
    42    20    53 1   
    43    21    22 2   
    44    21    69 1   
    45    22    23 1   
    46    22    37 1   
    47    23    70 1   
    48    23    71 1   
    49    23    72 1   
    50    24    25 ar  
    51    24    29 ar  
    52    25    26 ar  
    53    26    27 ar  
    54    26    54 1   
    55    27    28 ar  
    56    27    55 1   
    57    28    29 ar  
    58    28    56 1   
    59    29    57 1   
    60    31    58 1   
    61    32    33 ar  
    62    32    38 1   
    63    33    34 ar  
    64    34    35 1   
    65    34    36 ar  
    66    35    59 1   
    67    35    60 1   
    68    37    61 1   
    69    37    62 1   
    70    37    63 1   
    71    38    39 1   
    72    38    64 1   
    73    38    65 1   
    74    39    66 1   
    75    39    67 1   
    76    39    68 1   
@<TRIPOS>SUBSTRUCTURE
     1 0U6         1 TEMP              0 ****  ****    0 ROOT
