@<TRIPOS>MOLECULE
molecule
   73    76     1     0     0
SMALL
bcc


@<TRIPOS>ATOM
      1 N01          0.0000     0.0000     0.0000 nv         1 0U6      -1.046500
      2 C02          1.3850     0.0000     0.0000 ca         1 0U6       0.768200
      3 C03          2.0940     0.0000     1.2030 ca         1 0U6      -0.419900
      4 C04          1.3680    -0.0010     2.5240 c3         1 0U6       0.036200
      5 C05          1.0160     1.4130     2.9050 ca         1 0U6      -0.044300
      6 C06          1.9090     2.1720     3.6420 ca         1 0U6      -0.205000
      7 C07          1.5970     3.4740     3.9980 ca         1 0U6       0.123100
      8 O08          2.4810     4.2120     4.7220 os         1 0U6      -0.314900
      9 C09          3.7120     3.5810     5.0810 c3         1 0U6       0.125700
     10 C10          0.3800     4.0270     3.6160 ca         1 0U6       0.099100
     11 O11          0.0700     5.3020     3.9630 os         1 0U6      -0.337900
     12 C12          0.4530     6.3340     3.0510 c3         1 0U6       0.133700
     13 C13         -0.5260     3.2590     2.8690 ca         1 0U6      -0.062800
     14 C14         -1.8160     3.8310     2.4590 ce         1 0U6      -0.022200
     15 C15         -2.6860     3.0890     1.7400 cf         1 0U6      -0.239200
     16 C16         -3.9680     3.6580     1.3320 c          1 0U6       0.702300
     17 N17         -4.8360     2.9170     0.6140 n          1 0U6      -0.246800
     18 N18         -4.5170     1.5980     0.2620 n2         1 0U6      -0.450300
     19 C19         -5.4600     0.7080     0.1560 ce         1 0U6       0.417800
     20 C20         -6.1270     3.4840     0.2000 c3         1 0U6       0.176200
     21 C21         -6.0800     3.8380    -1.2640 c2         1 0U6      -0.207200
     22 C22         -6.2710     5.0760    -1.6450 c2         1 0U6      -0.095400
     23 C23         -6.0990     5.4540    -3.0920 c3         1 0U6      -0.059900
     24 C24         -7.2000     2.4500     0.4370 ca         1 0U6      -0.066300
     25 C25         -6.8590     1.0980     0.4080 ca         1 0U6      -0.179900
     26 C26         -7.8420     0.1330     0.6220 ca         1 0U6      -0.098000
     27 C27         -9.1450     0.5260     0.8560 ca         1 0U6      -0.132000
     28 C28         -9.4750     1.8700     0.8800 ca         1 0U6      -0.109000
     29 C29         -8.5020     2.8240     0.6780 ca         1 0U6      -0.116000
     30 O30         -4.2530     4.8020     1.6390 o          1 0U6      -0.612100
     31 C31         -0.1930     1.9470     2.5140 ca         1 0U6      -0.132000
     32 C32          3.4740     0.0010     1.1550 ca         1 0U6       0.526600
     33 N33          4.0820     0.0010    -0.0220 nb         1 0U6      -0.821000
     34 C34          3.3830     0.0010    -1.1490 ca         1 0U6       0.966900
     35 N35          4.0550     0.0030    -2.3590 nv         1 0U6      -0.991500
     36 N36          2.0590    -0.0050    -1.1460 nb         1 0U6      -0.845000
     37 C37         -6.6650     6.1230    -0.6340 c3         1 0U6      -0.059900
     38 C38          4.2800     0.0010     2.4280 c3         1 0U6      -0.139700
     39 C39          4.6980    -1.4300     2.7680 c3         1 0U6      -0.086100
     40 HN01        -0.5000    -0.7100     0.4970 hn         1 0U6       0.441800
     41 HN0A        -0.5000     0.6690    -0.5520 hn         1 0U6       0.441800
     42 H04          0.4620    -0.5890     2.4380 hc         1 0U6       0.052200
     43 H04A         2.0070    -0.4310     3.2860 hc         1 0U6       0.052200
     44 H06          2.8540     1.7420     3.9510 ha         1 0U6       0.140000
     45 H09          4.2910     4.2480     5.7070 h1         1 0U6       0.041033
     46 H09A         4.2740     3.3490     4.1840 h1         1 0U6       0.041033
     47 H09B         3.5040     2.6660     5.6230 h1         1 0U6       0.041033
     48 H12          1.2930     6.8830     3.4590 h1         1 0U6       0.037700
     49 H12A         0.7350     5.8920     2.1030 h1         1 0U6       0.037700
     50 H12B        -0.3800     7.0100     2.9000 h1         1 0U6       0.037700
     51 H14         -2.0690     4.8480     2.7340 ha         1 0U6       0.165000
     52 H15         -2.4330     2.0720     1.4650 ha         1 0U6       0.147000
     53 H20         -6.3400     4.3690     0.7880 h1         1 0U6       0.109700
     54 H26         -7.5860    -0.9200     0.6030 ha         1 0U6       0.133000
     55 H27         -9.9130    -0.2210     1.0160 ha         1 0U6       0.134000
     56 H28        -10.4990     2.1720     1.0650 ha         1 0U6       0.135000
     57 H29         -8.7660     3.8750     0.6980 ha         1 0U6       0.137000
     58 H31         -0.8880     1.3490     1.9370 ha         1 0U6       0.144000
     59 HN35         3.5400    -0.0020    -3.2170 hn         1 0U6       0.449300
     60 HN3A         5.0560     0.0060    -2.3760 hn         1 0U6       0.449300
     61 H37         -5.8200     6.3400     0.0080 hc         1 0U6       0.046533
     62 H37A        -6.9690     7.0260    -1.1490 hc         1 0U6       0.046533
     63 H37B        -7.4890     5.7550    -0.0350 hc         1 0U6       0.046533
     64 H38          3.6810     0.4030     3.2360 hc         1 0U6       0.058700
     65 H38A         5.1640     0.6130     2.2960 hc         1 0U6       0.058700
     66 H39          5.5900    -1.6880     2.2090 hc         1 0U6       0.039700
     67 H39A         3.8980    -2.1120     2.5050 hc         1 0U6       0.039700
     68 H39B         4.9030    -1.5050     3.8290 hc         1 0U6       0.039700
     69 H21         -5.7980     3.0860    -1.9910 ha         1 0U6       0.134000
     70 H23         -7.0580     5.7420    -3.5070 hc         1 0U6       0.046533
     71 H23A        -5.4090     6.2850    -3.1690 hc         1 0U6       0.046533
     72 H33         -5.7080     4.6070    -3.6430 hc         1 0U6       0.046533
     73 H19         -5.2190    -0.3120    -0.1150 h4         1 0U6       0.048800
@<TRIPOS>BOND
     1     1    40 1   
     2     1    41 1   
     3     2     1 1   
     4     2    36 ar  
     5     3     2 ar  
     6     4     3 1   
     7     4    42 1   
     8     4    43 1   
     9     5     4 1   
    10     5    31 ar  
    11     6     5 ar  
    12     6    44 1   
    13     7     6 ar  
    14     7    10 ar  
    15     8     7 1   
    16     9     8 1   
    17     9    45 1   
    18     9    46 1   
    19     9    47 1   
    20    10    13 ar  
    21    11    10 1   
    22    12    11 1   
    23    12    48 1   
    24    12    49 1   
    25    12    50 1   
    26    13    14 1   
    27    13    31 ar  
    28    14    15 2   
    29    14    51 1   
    30    15    16 1   
    31    15    52 1   
    32    16    17 1   
    33    17    20 1   
    34    17    18 1   
    35    18    19 2   
    36    19    25 1   
    37    20    24 1   
    38    20    53 1   
    39    21    20 1   
    40    22    21 2   
    41    22    37 1   
    42    23    22 1   
    43    24    29 ar  
    44    24    25 ar  
    45    25    26 ar  
    46    26    27 ar  
    47    26    54 1   
    48    27    55 1   
    49    28    27 ar  
    50    28    56 1   
    51    29    28 ar  
    52    29    57 1   
    53    30    16 2   
    54    31    58 1   
    55    32     3 ar  
    56    32    33 ar  
    57    33    34 ar  
    58    34    35 1   
    59    34    36 ar  
    60    35    59 1   
    61    35    60 1   
    62    37    61 1   
    63    37    62 1   
    64    37    63 1   
    65    38    32 1   
    66    38    39 1   
    67    38    64 1   
    68    38    65 1   
    69    39    66 1   
    70    39    67 1   
    71    39    68 1   
    72    21    69 1   
    73    23    70 1   
    74    23    71 1   
    75    23    72 1   
    76    19    73 1   
@<TRIPOS>SUBSTRUCTURE
     1 0U6         1 TEMP              0 ****  ****    0 ROOT
