@<TRIPOS>MOLECULE
0U6
   73    78     1     0     0
SMALL
bcc


@<TRIPOS>ATOM
      1 N01          0.0000     0.0000     0.0000 nv         1 0U6       0.068000
      2 C02          1.3850     0.0000     0.0000 c2         1 0U6       0.067000
      3 C03          2.0940     0.0000     1.2030 c2         1 0U6      -0.330000
      4 C04          1.3680    -0.0010     2.5240 c3         1 0U6       0.018000
      5 C05          1.0160     1.4130     2.9050 c2         1 0U6      -0.011000
      6 C06          1.9090     2.1720     3.6420 c2         1 0U6      -0.239000
      7 C07          1.5970     3.4740     3.9980 c2         1 0U6       0.118000
      8 O08          2.4810     4.2120     4.7220 os         1 0U6      -0.175000
      9 C09          3.7120     3.5810     5.0810 c3         1 0U6       0.049000
     10 C10          0.3800     4.0270     3.6160 c2         1 0U6      -0.014000
     11 O11          0.0700     5.3020     3.9630 os         1 0U6      -0.193000
     12 C12          0.4530     6.3340     3.0510 c3         1 0U6       0.056000
     13 C13         -0.5260     3.2590     2.8690 c3         1 0U6       0.003000
     14 C14         -1.8160     3.8310     2.4590 c2         1 0U6       0.001000
     15 C15         -2.6860     3.0890     1.7400 c2         1 0U6      -0.121000
     16 C16         -3.9680     3.6580     1.3320 c3         1 0U6       0.324000
     17 N17         -4.8360     2.9170     0.6140 n3         1 0U6       0.029000
     18 N18         -4.5170     1.5980     0.2620 n2         1 0U6      -0.099000
     19 C19         -5.4600     0.7080     0.1560 c2         1 0U6      -0.035000
     20 C20         -6.1270     3.4840     0.2000 c3         1 0U6       0.017000
     21 C21         -6.0800     3.8380    -1.2640 c2         1 0U6      -0.208000
     22 C22         -6.2710     5.0760    -1.6450 c2         1 0U6      -0.086000
     23 C23         -6.0990     5.4540    -3.0920 c3         1 0U6      -0.078000
     24 C24         -7.2000     2.4500     0.4370 ca         1 0U6      -0.069000
     25 C25         -6.8590     1.0980     0.4080 ca         1 0U6      -0.106000
     26 C26         -7.8420     0.1330     0.6220 ca         1 0U6      -0.063000
     27 C27         -9.1450     0.5260     0.8560 ca         1 0U6      -0.105000
     28 C28         -9.4750     1.8700     0.8800 ca         1 0U6      -0.079000
     29 C29         -8.5020     2.8240     0.6780 ca         1 0U6      -0.087000
     30 O30         -4.2530     4.8020     1.6390 o          1 0U6      -0.437000
     31 C31         -0.1930     1.9470     2.5140 c2         1 0U6      -0.188000
     32 C32          3.4740     0.0010     1.1550 c2         1 0U6       0.084000
     33 N33          4.0820     0.0010    -0.0220 n2         1 0U6      -0.214000
     34 C34          3.3830     0.0010    -1.1490 c2         1 0U6       0.029000
     35 N35          4.0550     0.0030    -2.3590 nv         1 0U6       0.100000
     36 N36          2.0590    -0.0050    -1.1460 n2         1 0U6      -0.243000
     37 C37         -6.6650     6.1230    -0.6340 c3         1 0U6      -0.078000
     38 C38          4.2800     0.0010     2.4280 c3         1 0U6      -0.083000
     39 C39          4.6980    -1.4300     2.7680 c3         1 0U6      -0.105000
     40 HN01        -0.4990     0.2610    -0.8270 hn         1 0U6       0.074500
     41 HN0A        -0.4990    -0.3420     0.7970 hn         1 0U6       0.074500
     42 H04          0.4620    -0.5890     2.4380 hc         1 0U6       0.062500
     43 H04A         2.0070    -0.4310     3.2860 hc         1 0U6       0.062500
     44 H06          2.8630     1.7490     3.9330 ha         1 0U6       0.135000
     45 H09          3.5040     2.6650     5.6220 h1         1 0U6       0.037667
     46 H09A         4.2740     3.3500     4.1840 h1         1 0U6       0.037667
     47 H09B         4.2900     4.2480     5.7080 h1         1 0U6       0.037667
     48 H12         -0.4220     6.9060     2.7660 h1         1 0U6       0.032000
     49 H12A         1.1730     6.9880     3.5280 h1         1 0U6       0.032000
     50 H12B         0.8970     5.8900     2.1690 h1         1 0U6       0.032000
     51 H14         -0.9580     3.7260     1.8060 DU         1 0U6       0.126000
     52 H15         -3.5430     3.1960     2.3930 DU         1 0U6       0.074000
     53 H20         -6.3400     4.3690     0.7880 h1         1 0U6       0.128000
     54 H26         -7.5860    -0.9200     0.6030 ha         1 0U6       0.107000
     55 H27         -9.9130    -0.2210     1.0160 ha         1 0U6       0.107000
     56 H28        -10.4990     2.1720     1.0650 ha         1 0U6       0.106000
     57 H29         -8.7660     3.8750     0.6980 ha         1 0U6       0.113000
     58 H31         -0.8880     1.3490     1.9370 ha         1 0U6       0.131000
     59 HN35         3.5400     0.0000    -3.2170 hn         1 0U6       0.068500
     60 HN3A         5.0560     0.0070    -2.3760 hn         1 0U6       0.068500
     61 H37         -6.8800     7.0540    -1.1440 hc         1 0U6       0.053667
     62 H37A        -5.8510     6.2740     0.0650 hc         1 0U6       0.053667
     63 H37B        -7.5460     5.7930    -0.0970 hc         1 0U6       0.053667
     64 H38          5.1640     0.6130     2.2950 hc         1 0U6       0.069500
     65 H38A         3.6810     0.4030     3.2360 hc         1 0U6       0.069500
     66 H39          4.9850    -1.4850     3.8110 hc         1 0U6       0.043667
     67 H39A         3.8680    -2.1020     2.5850 hc         1 0U6       0.043667
     68 H39B         5.5380    -1.7180     2.1470 hc         1 0U6       0.043667
     69 H21         -5.8750     3.0700    -2.0000 ha         1 0U6       0.117000
     70 H23         -5.0450     5.4650    -3.3400 hc         1 0U6       0.053667
     71 H23A        -6.5200     6.4390    -3.2610 hc         1 0U6       0.053667
     72 H33         -6.6100     4.7320    -3.7170 hc         1 0U6       0.053667
     73 H19         -5.2190    -0.3120    -0.1150 h4         1 0U6       0.128000
@<TRIPOS>BOND
     1     1     2 1   
     2     1    40 1   
     3     1    41 1   
     4     2     3 1   
     5     2    36 1   
     6     3     4 1   
     7     3    32 1   
     8     4     5 1   
     9     4    42 1   
    10     4    43 1   
    11     5     6 1   
    12     5    31 1   
    13     6     7 1   
    14     6    44 1   
    15     7     8 1   
    16     7    10 1   
    17     8     9 1   
    18     9    45 1   
    19     9    46 1   
    20     9    47 1   
    21    10    11 1   
    22    10    13 1   
    23    11    12 1   
    24    12    48 1   
    25    12    49 1   
    26    12    50 1   
    27    13    14 1   
    28    13    31 1   
    29    13    51 1   
    30    14    15 1   
    31    14    51 1   
    32    15    16 1   
    33    15    52 1   
    34    16    17 1   
    35    16    30 1   
    36    16    52 1   
    37    17    18 1   
    38    17    20 1   
    39    18    19 1   
    40    19    25 1   
    41    19    73 1   
    42    20    21 1   
    43    20    24 1   
    44    20    53 1   
    45    21    22 1   
    46    21    69 1   
    47    22    23 1   
    48    22    37 1   
    49    23    70 1   
    50    23    71 1   
    51    23    72 1   
    52    24    25 1   
    53    24    29 1   
    54    25    26 1   
    55    26    27 1   
    56    26    54 1   
    57    27    28 1   
    58    27    55 1   
    59    28    29 1   
    60    28    56 1   
    61    29    57 1   
    62    31    58 1   
    63    32    33 1   
    64    32    38 1   
    65    33    34 1   
    66    34    35 1   
    67    34    36 1   
    68    35    59 1   
    69    35    60 1   
    70    37    61 1   
    71    37    62 1   
    72    37    63 1   
    73    38    39 1   
    74    38    64 1   
    75    38    65 1   
    76    39    66 1   
    77    39    67 1   
    78    39    68 1   
@<TRIPOS>SUBSTRUCTURE
     1 0U6         1 TEMP              0 ****  ****    0 ROOT
