@<TRIPOS>MOLECULE
molecule
   42    44     1     0     0
SMALL
bcc


@<TRIPOS>ATOM
      1 O1'          0.0000     0.0000     0.0000 oh         1 0U8      -0.584800
      2 C1'          1.4290     0.0000     0.0000 c3         1 0U8       0.131900
      3 C2'          1.9480     0.0000     1.4650 c3         1 0U8       0.339100
      4 O6           1.4440     1.2070     2.0860 os         1 0U8      -0.392100
      5 C6           1.8350     1.2750     3.4880 c3         1 0U8       0.123400
      6 C5           0.6710     0.8050     4.3740 c3         1 0U8       0.106100
      7 O5           0.4590    -0.6740     4.2220 os         1 0U8      -0.366100
      8 C2           1.2960    -1.3470     5.2340 c3         1 0U8       0.339100
      9 C1           0.6060    -2.5900     5.6670 c3         1 0U8       0.131900
     10 O1          -0.6050    -2.2520     6.3450 oh         1 0U8      -0.584800
     11 O2           2.5850    -1.6080     4.7170 os         1 0U8      -0.392100
     12 C6'          2.5740    -2.6390     3.7310 c3         1 0U8       0.123400
     13 C5'          2.6380    -1.9950     2.2870 c3         1 0U8       0.106100
     14 O5'          1.5430    -1.0780     2.0830 os         1 0U8      -0.366100
     15 C4'          3.9920    -1.1490     2.2180 c3         1 0U8       0.093600
     16 O4'          4.9950    -1.8360     1.4680 oh         1 0U8      -0.597300
     17 C3'          3.4950     0.1130     1.4700 c3         1 0U8       0.097600
     18 O3'          3.9030     1.2950     2.1640 oh         1 0U8      -0.587800
     19 C3           1.3740    -0.3070     6.3910 c3         1 0U8       0.097600
     20 O3           2.7080    -0.2420     6.9010 oh         1 0U8      -0.587800
     21 C4           0.9870     1.0090     5.8110 c3         1 0U8       0.093600
     22 O4          -0.1630     1.5160     6.4910 oh         1 0U8      -0.597300
     23 H1          -0.3140     0.0010    -0.8890 ho         1 0U8       0.400500
     24 H2           1.7900    -0.8840    -0.5110 h1         1 0U8       0.032700
     25 H3           1.7900     0.8840    -0.5110 h1         1 0U8       0.032700
     26 H4           2.6930     0.6350     3.6530 h1         1 0U8       0.061450
     27 H5           2.0880     2.2980     3.7400 h1         1 0U8       0.061450
     28 H6          -0.2350     1.3390     4.1130 h1         1 0U8       0.090700
     29 H7           1.2510    -3.1470     6.3360 h1         1 0U8       0.032700
     30 H8           0.3770    -3.1970     4.7990 h1         1 0U8       0.032700
     31 H9          -1.0880    -3.0390     6.5360 ho         1 0U8       0.400500
     32 H10          3.4330    -3.2830     3.8750 h1         1 0U8       0.061450
     33 H11          1.6630    -3.2180     3.8260 h1         1 0U8       0.061450
     34 H12          2.6340    -2.7670     1.5260 h1         1 0U8       0.090700
     35 H13          4.3420    -0.8970     3.2120 h1         1 0U8       0.073700
     36 H14          5.7990    -1.8540     1.9600 ho         1 0U8       0.405500
     37 H15          3.8720     0.1180     0.4550 h1         1 0U8       0.076700
     38 H16          4.6270     1.6910     1.7100 ho         1 0U8       0.401000
     39 H17          0.6830    -0.5800     7.1800 h1         1 0U8       0.076700
     40 H18          2.6850    -0.2550     7.8440 ho         1 0U8       0.401000
     41 H19          1.8110     1.7050     5.9070 h1         1 0U8       0.073700
     42 H20          0.0400     2.3560     6.8690 ho         1 0U8       0.405500
@<TRIPOS>BOND
     1    16    15 1   
     2    18    17 1   
     3    17    15 1   
     4    17     3 1   
     5    15    13 1   
     6    13    12 1   
     7    13    14 1   
     8     1     2 1   
     9     2     3 1   
    10     3    14 1   
    11     3     4 1   
    12    12    11 1   
    13    11     8 1   
    14     4     5 1   
    15    20    19 1   
    16     8     7 1   
    17     8    19 1   
    18     8     9 1   
    19     5     6 1   
    20    21    19 1   
    21    21     6 1   
    22    21    22 1   
    23    10     9 1   
    24     7     6 1   
    25     1    23 1   
    26     2    24 1   
    27     2    25 1   
    28     5    26 1   
    29     5    27 1   
    30     6    28 1   
    31     9    29 1   
    32     9    30 1   
    33    10    31 1   
    34    12    32 1   
    35    12    33 1   
    36    13    34 1   
    37    15    35 1   
    38    16    36 1   
    39    17    37 1   
    40    18    38 1   
    41    19    39 1   
    42    20    40 1   
    43    21    41 1   
    44    22    42 1   
@<TRIPOS>SUBSTRUCTURE
     1 0U8         1 TEMP              0 ****  ****    0 ROOT
