@<TRIPOS>MOLECULE
0U8
   42    44     1     0     0
SMALL
bcc


@<TRIPOS>ATOM
      1 O1'          0.1900     0.6770     0.3140 oh         1 0U8      -0.599300
      2 C1'          1.4790     0.1670     0.0160 c3         1 0U8       0.117900
      3 C2'          2.2290     0.0510     1.3550 c3         1 0U8       0.311100
      4 O6           1.7700    -1.0500     2.1210 os         1 0U8      -0.422600
      5 C6           2.1550    -2.3450     1.6790 c3         1 0U8       0.129900
      6 C5           2.9250    -3.0800     2.7760 c3         1 0U8       0.119600
      7 O5           4.3160    -2.7280     2.6990 os         1 0U8      -0.436100
      8 C2           4.7830    -2.1900     3.9360 c3         1 0U8       0.311100
      9 C1           6.1930    -2.7390     4.2000 c3         1 0U8       0.117900
     10 O1           6.9740    -2.8050     3.0280 oh         1 0U8      -0.599300
     11 O2           4.7400    -0.7850     3.8130 os         1 0U8      -0.422600
     12 C6'          5.4070    -0.2250     2.6860 c3         1 0U8       0.129900
     13 C5'          4.4450     0.6580     1.8940 c3         1 0U8       0.119600
     14 O5'          3.6010    -0.1700     1.0720 os         1 0U8      -0.436100
     15 C4'          3.5430     1.5440     2.7740 c3         1 0U8       0.095100
     16 O4'          3.9430     2.8870     2.5750 oh         1 0U8      -0.597300
     17 C3'          2.1070     1.3130     2.2480 c3         1 0U8       0.130600
     18 O3'          1.2460     1.1460     3.3490 oh         1 0U8      -0.573300
     19 C3           3.7480    -2.5890     5.0240 c3         1 0U8       0.130600
     20 O3           3.6560    -1.5690     5.9890 oh         1 0U8      -0.573300
     21 C4           2.4460    -2.7850     4.2120 c3         1 0U8       0.095100
     22 O4           1.7580    -3.8860     4.7730 oh         1 0U8      -0.597300
     23 H1          -0.2870     0.7190    -0.5230 ho         1 0U8       0.412500
     24 H2           1.4010    -0.8440    -0.4640 h1         1 0U8       0.054200
     25 H3           2.0320     0.8690    -0.6610 h1         1 0U8       0.054200
     26 H4           2.7810    -2.3050     0.7510 h1         1 0U8       0.063700
     27 H5           1.1940    -2.8940     1.4790 h1         1 0U8       0.063700
     28 H6           2.8770    -4.1860     2.5660 h1         1 0U8       0.075200
     29 H7           6.7400    -2.0350     4.8830 h1         1 0U8       0.054200
     30 H8           6.1130    -3.7560     4.6690 h1         1 0U8       0.054200
     31 H9           6.4920    -3.3470     2.3890 ho         1 0U8       0.412500
     32 H10          6.2290     0.4180     3.1030 h1         1 0U8       0.063700
     33 H11          5.8330    -1.0160     2.0150 h1         1 0U8       0.063700
     34 H12          5.0420     1.2910     1.1780 h1         1 0U8       0.075200
     35 H13          3.6130     1.2560     3.8590 h1         1 0U8       0.101200
     36 H14          3.4650     3.4140     3.2280 ho         1 0U8       0.412000
     37 H15          1.7560     2.1790     1.6220 h1         1 0U8       0.068200
     38 H16          0.4700     0.6670     3.0260 ho         1 0U8       0.419000
     39 H17          4.0500    -3.5550     5.5130 h1         1 0U8       0.068200
     40 H18          2.8500    -1.7450     6.4930 ho         1 0U8       0.419000
     41 H19          1.8160    -1.8540     4.2470 h1         1 0U8       0.101200
     42 H20          0.9020    -3.9350     4.3290 ho         1 0U8       0.412000
@<TRIPOS>BOND
     1     1     2 1   
     2     1    23 1   
     3     2     3 1   
     4     2    24 1   
     5     2    25 1   
     6     3     4 1   
     7     3    14 1   
     8     3    17 1   
     9     4     5 1   
    10     5     6 1   
    11     5    26 1   
    12     5    27 1   
    13     6     7 1   
    14     6    21 1   
    15     6    28 1   
    16     7     8 1   
    17     8     9 1   
    18     8    11 1   
    19     8    19 1   
    20     9    10 1   
    21     9    29 1   
    22     9    30 1   
    23    10    31 1   
    24    11    12 1   
    25    12    13 1   
    26    12    32 1   
    27    12    33 1   
    28    13    14 1   
    29    13    15 1   
    30    13    34 1   
    31    15    16 1   
    32    15    17 1   
    33    15    35 1   
    34    16    36 1   
    35    17    18 1   
    36    17    37 1   
    37    18    38 1   
    38    19    20 1   
    39    19    21 1   
    40    19    39 1   
    41    20    40 1   
    42    21    22 1   
    43    21    41 1   
    44    22    42 1   
@<TRIPOS>SUBSTRUCTURE
     1 0U8         1 TEMP              0 ****  ****    0 ROOT
