@<TRIPOS>MOLECULE
0U9
   43    44     1     0     0
SMALL
bcc


@<TRIPOS>ATOM
      1 F1           0.4020     0.7790     0.5580 f          1 0U9      -0.229300
      2 C2           1.5790     0.3230     0.0180 c3         1 0U9       0.686200
      3 F3           2.4760     0.4180     1.0550 f          1 0U9      -0.229300
      4 F4           1.9720     1.3120    -0.8500 f          1 0U9      -0.229300
      5 C5           1.4840    -1.0690    -0.6140 ca         1 0U9      -0.100300
      6 C6           2.2880    -2.0850    -0.1110 ca         1 0U9      -0.150000
      7 C7           0.6050    -1.3160    -1.6800 ca         1 0U9       0.006000
      8 C8          -0.2290    -0.2990    -2.2170 cg         1 0U9       0.217800
      9 N9          -0.9160     0.5250    -2.6650 n1         1 0U9      -0.326800
     10 C10          0.5500    -2.6050    -2.2270 ca         1 0U9      -0.071000
     11 C11          1.3470    -3.6310    -1.7340 ca         1 0U9      -0.143000
     12 C12          2.2360    -3.3900    -0.6650 ca         1 0U9       0.091600
     13 N13          3.0690    -4.3720    -0.1170 ns         1 0U9      -0.460100
     14 C14          3.2290    -5.6810    -0.5430 c          1 0U9       0.633100
     15 O15          2.6460    -6.1490    -1.5360 o          1 0U9      -0.589100
     16 C16          4.2160    -6.5640     0.2730 c3         1 0U9       0.155800
     17 O17          4.2990    -6.0810     1.6160 oh         1 0U9      -0.605800
     18 C18          3.7170    -8.0020     0.2540 c3         1 0U9      -0.137100
     19 C19          5.6270    -6.3890    -0.2830 c3         1 0U9      -0.309600
     20 S20          6.2340    -7.2860    -1.6410 sy         1 0U9       1.390300
     21 O21          5.4860    -8.4470    -1.8540 o          1 0U9      -0.647300
     22 O22          7.6060    -7.4460    -1.3890 o          1 0U9      -0.647300
     23 C23          6.0100    -6.1960    -2.8780 ca         1 0U9      -0.430500
     24 C24          7.0340    -5.3010    -3.2270 ca         1 0U9       0.015500
     25 C25          4.8320    -6.1920    -3.6390 ca         1 0U9       0.015500
     26 C26          4.6670    -5.3270    -4.7130 ca         1 0U9      -0.197000
     27 C27          5.7050    -4.4330    -5.0430 ca         1 0U9       0.200900
     28 F28          5.5580    -3.5850    -6.0820 f          1 0U9      -0.123900
     29 C29          6.8980    -4.4230    -4.2910 ca         1 0U9      -0.197000
     30 H1           2.9700    -1.8610     0.7280 ha         1 0U9       0.160000
     31 H2          -0.1400    -2.8100    -3.0630 ha         1 0U9       0.158000
     32 H3           1.2720    -4.6330    -2.1910 ha         1 0U9       0.184000
     33 H4           3.5930    -4.1040     0.6930 hn         1 0U9       0.341500
     34 H5           3.5760    -6.4760     2.1190 ho         1 0U9       0.419000
     35 H6           2.7770    -8.0880     0.8520 hc         1 0U9       0.074033
     36 H7           3.4990    -8.3310    -0.7930 hc         1 0U9       0.074033
     37 H8           4.4920    -8.6760     0.6910 hc         1 0U9       0.074033
     38 H9           6.3180    -6.6280     0.5840 h1         1 0U9       0.128700
     39 H10          5.7830    -5.2900    -0.4560 h1         1 0U9       0.128700
     40 H11          7.9780    -5.3140    -2.6500 ha         1 0U9       0.169500
     41 H12          4.0140    -6.8910    -3.3740 ha         1 0U9       0.169500
     42 H13          3.7400    -5.3330    -5.3050 ha         1 0U9       0.162500
     43 H14          7.7060    -3.7270    -4.5590 ha         1 0U9       0.162500
@<TRIPOS>BOND
     1     1     2 1   
     2     2     3 1   
     3     2     4 1   
     4     2     5 1   
     5     5     6 ar  
     6     5     7 ar  
     7     6    12 ar  
     8     6    30 1   
     9     7     8 1   
    10     7    10 ar  
    11     8     9 3   
    12    10    11 ar  
    13    10    31 1   
    14    11    12 ar  
    15    11    32 1   
    16    12    13 1   
    17    13    14 1   
    18    13    33 1   
    19    14    15 2   
    20    14    16 1   
    21    16    17 1   
    22    16    18 1   
    23    16    19 1   
    24    17    34 1   
    25    18    35 1   
    26    18    36 1   
    27    18    37 1   
    28    19    20 1   
    29    19    38 1   
    30    19    39 1   
    31    20    21 2   
    32    20    22 2   
    33    20    23 1   
    34    23    24 ar  
    35    23    25 ar  
    36    24    29 ar  
    37    24    40 1   
    38    25    26 ar  
    39    25    41 1   
    40    26    27 ar  
    41    26    42 1   
    42    27    28 1   
    43    27    29 ar  
    44    29    43 1   
@<TRIPOS>SUBSTRUCTURE
     1 0U9         1 TEMP              0 ****  ****    0 ROOT
