@<TRIPOS>MOLECULE
molecule
   43    44     1     0     0
SMALL
bcc


@<TRIPOS>ATOM
      1 F1           0.0000     0.0000     0.0000 f          1 0U9      -0.216300
      2 C2           1.3980     0.0000     0.0000 c3         1 0U9       0.674200
      3 F3           1.8650     0.0000     1.3190 f          1 0U9      -0.216300
      4 F4           1.8650    -1.1430    -0.6600 f          1 0U9      -0.216300
      5 C5           1.9010     1.2290    -0.7120 ca         1 0U9      -0.135300
      6 C6           1.0070     2.1390    -1.2300 ca         1 0U9      -0.112000
      7 C7           3.2750     1.4510    -0.8400 ca         1 0U9       0.022000
      8 C8           4.2080     0.5100    -0.2970 cg         1 0U9       0.221800
      9 N9           4.9350    -0.2400     0.1480 n1         1 0U9      -0.326800
     10 C10          3.7360     2.5940    -1.5020 ca         1 0U9      -0.082000
     11 C11          2.8360     3.4960    -2.0230 ca         1 0U9      -0.107000
     12 C12          1.4690     3.2750    -1.8870 ca         1 0U9       0.062600
     13 N13          0.5600     4.1940    -2.4120 ns         1 0U9      -0.472100
     14 C14          0.8490     5.5110    -2.3960 c          1 0U9       0.655100
     15 O15          1.9320     5.8900    -2.0030 o          1 0U9      -0.580100
     16 C16         -0.1740     6.5120    -2.8660 c3         1 0U9       0.102800
     17 O17         -0.9240     5.9540    -3.9480 oh         1 0U9      -0.592800
     18 C18         -1.1200     6.8560    -1.7140 c3         1 0U9      -0.148100
     19 C19          0.5350     7.7820    -3.3400 c3         1 0U9      -0.189600
     20 S20         -0.6990     9.0410    -3.7670 sy         1 0U9       1.204300
     21 O21         -1.4230     8.6560    -4.9280 o          1 0U9      -0.612300
     22 O22         -1.3730     9.4950    -2.6020 o          1 0U9      -0.612300
     23 C23          0.2510    10.4290    -4.2890 ca         1 0U9      -0.320500
     24 C24          0.6000    10.5680    -5.6190 ca         1 0U9      -0.002500
     25 C25          0.6430    11.3840    -3.3680 ca         1 0U9      -0.002500
     26 C26          1.3890    12.4730    -3.7750 ca         1 0U9      -0.190500
     27 C27          1.7440    12.6100    -5.1070 ca         1 0U9       0.189900
     28 F28          2.4730    13.6750    -5.5060 f          1 0U9      -0.130900
     29 C29          1.3450    11.6580    -6.0300 ca         1 0U9      -0.190500
     30 H1          -0.0580     1.9720    -1.1270 ha         1 0U9       0.158000
     31 H2           4.8010     2.7680    -1.6020 ha         1 0U9       0.156000
     32 H3           3.1920     4.3810    -2.5350 ha         1 0U9       0.177000
     33 H4          -0.1820     3.8800    -3.0050 hn         1 0U9       0.335500
     34 H5          -1.6960     5.5310    -3.6100 ho         1 0U9       0.417000
     35 H6          -1.3130     5.9660    -1.1270 hc         1 0U9       0.070367
     36 H7          -0.6640     7.6110    -1.0850 hc         1 0U9       0.070367
     37 H8          -2.0540     7.2340    -2.1130 hc         1 0U9       0.070367
     38 H9           1.1040     8.2050    -2.5200 h1         1 0U9       0.120700
     39 H10          1.2050     7.5390    -4.1560 h1         1 0U9       0.120700
     40 H11          0.2890     9.8220    -6.3410 ha         1 0U9       0.158500
     41 H12          0.3660    11.2770    -2.3260 ha         1 0U9       0.158500
     42 H13          1.6960    13.2200    -3.0530 ha         1 0U9       0.154000
     43 H14          1.6180    11.7650    -7.0730 ha         1 0U9       0.154000
@<TRIPOS>BOND
     1    18    16 1   
     2    17    16 1   
     3    22    20 2   
     4    19    16 1   
     5    19    20 1   
     6    16    14 1   
     7    21    20 2   
     8    20    23 1   
     9    14    15 2   
    10    14    13 1   
    11    13    12 1   
    12    23    24 ar  
    13    23    25 ar  
    14    24    29 ar  
    15    25    26 ar  
    16    12     6 ar  
    17    12    11 ar  
    18     6     5 ar  
    19    29    27 ar  
    20     3     2 1   
    21    11    10 ar  
    22    26    27 ar  
    23    27    28 1   
    24     5     2 1   
    25     5     7 ar  
    26     2     1 1   
    27     2     4 1   
    28    10     7 ar  
    29     7     8 1   
    30     8     9 3   
    31     6    30 1   
    32    10    31 1   
    33    11    32 1   
    34    13    33 1   
    35    17    34 1   
    36    18    35 1   
    37    18    36 1   
    38    18    37 1   
    39    19    38 1   
    40    19    39 1   
    41    24    40 1   
    42    25    41 1   
    43    26    42 1   
    44    29    43 1   
@<TRIPOS>SUBSTRUCTURE
     1 0U9         1 TEMP              0 ****  ****    0 ROOT
