@<TRIPOS>MOLECULE
0U9
   43    44     1     0     0
SMALL
bcc


@<TRIPOS>ATOM
      1 F1           0.0000     0.0000     0.0000 f          1 0U9      -0.202967
      2 C2           1.3980     0.0000     0.0000 c3         1 0U9       0.642200
      3 F3           1.8650     0.0000     1.3190 f          1 0U9      -0.202967
      4 F4           1.8650    -1.1430    -0.6600 f          1 0U9      -0.202967
      5 C5           1.9010     1.2290    -0.7120 ca         1 0U9      -0.172300
      6 C6           1.0070     2.1390    -1.2300 ca         1 0U9      -0.069000
      7 C7           3.2750     1.4510    -0.8400 ca         1 0U9       0.089000
      8 C8           4.2080     0.5100    -0.2970 cg         1 0U9       0.200800
      9 N9           4.9350    -0.2400     0.1480 n1         1 0U9      -0.334800
     10 C10          3.7360     2.5940    -1.5020 ca         1 0U9      -0.061000
     11 C11          2.8360     3.4960    -2.0230 ca         1 0U9      -0.075000
     12 C12          1.4690     3.2750    -1.8870 ca         1 0U9      -0.086400
     13 N13          0.5600     4.1940    -2.4120 ns         1 0U9      -0.033100
     14 C14          0.8490     5.5110    -2.3960 c          1 0U9       0.550100
     15 O15          1.9320     5.8900    -2.0030 o          1 0U9      -0.626100
     16 C16         -0.1740     6.5120    -2.8660 c3         1 0U9       0.125800
     17 O17         -0.9240     5.9540    -3.9480 oh         1 0U9      -0.576800
     18 C18         -1.1200     6.8560    -1.7140 c3         1 0U9      -0.059100
     19 C19          0.5350     7.7820    -3.3400 c3         1 0U9       0.009400
     20 S20         -0.6990     9.0410    -3.7670 sy         1 0U9       0.881300
     21 O21         -1.4230     8.6560    -4.9280 o          1 0U9      -0.583300
     22 O22         -1.3730     9.4950    -2.6020 o          1 0U9      -0.583300
     23 C23          0.2510    10.4290    -4.2890 ca         1 0U9      -0.173500
     24 C24          0.6000    10.5680    -5.6190 ca         1 0U9       0.030500
     25 C25          0.6430    11.3840    -3.3680 ca         1 0U9       0.030500
     26 C26          1.3890    12.4730    -3.7750 ca         1 0U9      -0.164500
     27 C27          1.7440    12.6100    -5.1070 ca         1 0U9       0.156900
     28 F28          2.4730    13.6750    -5.5060 f          1 0U9      -0.122900
     29 C29          1.3450    11.6580    -6.0300 ca         1 0U9      -0.164500
     30 H1          -0.0580     1.9720    -1.1270 ha         1 0U9       0.129000
     31 H2           4.8010     2.7680    -1.6020 ha         1 0U9       0.123000
     32 H3           3.1920     4.3810    -2.5350 ha         1 0U9       0.152000
     33 H4          -0.1820     3.8800    -3.0050 hn         1 0U9       0.180500
     34 H5          -1.6960     5.5310    -3.6100 ho         1 0U9       0.406000
     35 H6          -1.3130     5.9660    -1.1270 hc         1 0U9       0.036700
     36 H7          -0.6640     7.6110    -1.0850 hc         1 0U9       0.036700
     37 H8          -2.0540     7.2340    -2.1130 hc         1 0U9       0.036700
     38 H9           1.1040     8.2050    -2.5200 h1         1 0U9       0.086200
     39 H10          1.2050     7.5390    -4.1560 h1         1 0U9       0.086200
     40 H11          0.2890     9.8220    -6.3410 ha         1 0U9       0.127000
     41 H12          0.3660    11.2770    -2.3260 ha         1 0U9       0.127000
     42 H13          1.6960    13.2200    -3.0530 ha         1 0U9       0.126000
     43 H14          1.6180    11.7650    -7.0730 ha         1 0U9       0.126000
@<TRIPOS>BOND
     1     1     2 1   
     2     2     3 1   
     3     2     4 1   
     4     2     5 1   
     5     5     6 ar  
     6     5     7 ar  
     7     6    12 ar  
     8     6    30 1   
     9     7     8 1   
    10     7    10 ar  
    11     8     9 3   
    12    10    11 ar  
    13    10    31 1   
    14    11    12 ar  
    15    11    32 1   
    16    12    13 1   
    17    13    14 1   
    18    13    33 1   
    19    14    15 2   
    20    14    16 1   
    21    16    17 1   
    22    16    18 1   
    23    16    19 1   
    24    17    34 1   
    25    18    35 1   
    26    18    36 1   
    27    18    37 1   
    28    19    20 1   
    29    19    38 1   
    30    19    39 1   
    31    20    21 2   
    32    20    22 2   
    33    20    23 1   
    34    23    24 ar  
    35    23    25 ar  
    36    24    29 ar  
    37    24    40 1   
    38    25    26 ar  
    39    25    41 1   
    40    26    27 ar  
    41    26    42 1   
    42    27    28 1   
    43    27    29 ar  
    44    29    43 1   
@<TRIPOS>SUBSTRUCTURE
     1 0U9         1 TEMP              0 ****  ****    0 ROOT
