@<TRIPOS>MOLECULE
0UF
   69    71     1     0     0
SMALL
bcc


@<TRIPOS>ATOM
      1 O5           0.0000     0.0000     0.0000 o          1 0UF      -0.650533
      2 S1           1.4210     0.0000     0.0000 s6         1 0UF       0.953800
      3 O4           2.1540     0.0000     1.2180 o          1 0UF      -0.650533
      4 O6           1.7970    -1.3170    -0.6630 o          1 0UF      -0.650533
      5 C13          2.0590     1.2720    -1.1260 c3         1 0UF      -0.057600
      6 C4           1.7390     2.6590    -0.5620 c3         1 0UF      -0.015400
      7 C1           2.2760     3.7310    -1.5120 c3         1 0UF      -0.036700
      8 N1           1.9710     5.0580    -0.9720 na         1 0UF       0.328600
      9 C8           2.7740     5.8060    -0.1160 ca         1 0UF      -0.191200
     10 C17          4.0140     5.5780     0.4640 ca         1 0UF      -0.067000
     11 C23          4.5710     6.5320     1.2920 ca         1 0UF      -0.110000
     12 C26          3.8970     7.7140     1.5440 ca         1 0UF      -0.100000
     13 C20          2.6620     7.9490     0.9720 ca         1 0UF      -0.072000
     14 C14          2.0940     6.9970     0.1380 ca         1 0UF       0.049100
     15 O1           0.9250     6.9520    -0.5460 os         1 0UF      -0.143200
     16 C9           0.8500     5.7920    -1.2190 cc         1 0UF       0.125000
     17 C18         -0.2050     5.4020    -2.0350 cf         1 0UF      -0.371000
     18 C24         -1.2940     6.2400    -2.2070 cf         1 0UF       0.126000
     19 C25         -2.3510     5.8480    -3.0250 ce         1 0UF      -0.352000
     20 C19         -2.3140     4.6250    -3.6630 ce         1 0UF       0.215000
     21 C10         -3.4250     4.1830    -4.4000 cd         1 0UF      -0.479400
     22 C12         -4.6440     4.9160    -4.3960 c          1 0UF       0.638700
     23 O3          -4.7440     5.9440    -3.7500 o          1 0UF      -0.665000
     24 C11         -3.3600     2.9950    -5.1770 c          1 0UF       0.638700
     25 O2          -2.3360     2.3360    -5.2150 o          1 0UF      -0.665000
     26 N2          -4.4490     2.6060    -5.8710 n          1 0UF       0.035100
     27 C2          -4.3960     1.3830    -6.6750 c3         1 0UF      -0.013000
     28 C5          -4.8270     0.1900    -5.8180 c3         1 0UF      -0.048900
     29 C15         -4.7700    -1.0880    -6.6580 c3         1 0UF      -0.019400
     30 C21         -5.2010    -2.2800    -5.8020 c3         1 0UF       0.005400
     31 C7          -5.5840     3.3250    -5.8340 cs         1 0UF       0.282400
     32 S2          -6.9370     2.7860    -6.7330 s          1 0UF      -0.714400
     33 N3          -5.6850     4.4580    -5.1180 n          1 0UF       0.035100
     34 C3          -6.9470     5.2030    -5.1220 c3         1 0UF      -0.013000
     35 C6          -6.9320     6.2240    -6.2610 c3         1 0UF      -0.048900
     36 C16         -8.2490     7.0030    -6.2640 c3         1 0UF      -0.019400
     37 C22         -8.2350     8.0240    -7.4040 c3         1 0UF       0.005400
     38 H1           1.5920     1.1610    -2.0970 h1         1 0UF       0.051700
     39 H2           3.1320     1.1610    -1.2250 h1         1 0UF       0.051700
     40 H3           2.2060     2.7700     0.4090 hc         1 0UF       0.031200
     41 H4           0.6660     2.7690    -0.4620 hc         1 0UF       0.031200
     42 H5           3.3490     3.6190    -1.6120 h1         1 0UF       0.039700
     43 H6           1.8090     3.6200    -2.4830 h1         1 0UF       0.039700
     44 H7           4.7810     4.8180     0.3730 ha         1 0UF       0.130000
     45 H8           5.5330     6.3990     1.7710 ha         1 0UF       0.110000
     46 H9           4.3360     8.4610     2.1950 ha         1 0UF       0.107000
     47 H10          2.1600     8.8830     1.1970 ha         1 0UF       0.112000
     48 H11         -0.1750     4.4420    -2.5370 ha         1 0UF       0.167000
     49 H13         -1.3230     7.2000    -1.7070 ha         1 0UF       0.091000
     50 H15         -3.2030     6.5040    -3.1590 ha         1 0UF       0.192000
     51 H17         -1.3950     4.0520    -3.6770 ha         1 0UF       0.114000
     52 H20         -3.3830     1.2270    -7.0280 h1         1 0UF       0.065950
     53 H21         -5.0630     1.4790    -7.5230 h1         1 0UF       0.065950
     54 H22         -5.8400     0.3460    -5.4660 hc         1 0UF       0.032950
     55 H23         -4.1600     0.0940    -4.9700 hc         1 0UF       0.032950
     56 H24         -3.7580    -1.2440    -7.0110 hc         1 0UF       0.012950
     57 H25         -5.4370    -0.9930    -7.5070 hc         1 0UF       0.012950
     58 H26         -5.1620    -3.1850    -6.3970 hc         1 0UF      -0.000300
     59 H27         -6.2140    -2.1240    -5.4500 hc         1 0UF      -0.000300
     60 H28         -4.5340    -2.3760    -4.9540 hc         1 0UF      -0.000300
     61 H29         -7.7720     4.5150    -5.2630 h1         1 0UF       0.065950
     62 H30         -7.0640     5.7180    -4.1760 h1         1 0UF       0.065950
     63 H31         -6.8150     5.7080    -7.2060 hc         1 0UF       0.032950
     64 H32         -6.1060     6.9110    -6.1190 hc         1 0UF       0.032950
     65 H33         -8.3660     7.5190    -5.3190 hc         1 0UF       0.012950
     66 H34         -9.0750     6.3160    -6.4060 hc         1 0UF       0.012950
     67 H35         -8.1160     7.5080    -8.3490 hc         1 0UF      -0.000300
     68 H36         -9.1670     8.5750    -7.4070 hc         1 0UF      -0.000300
     69 H37         -7.4100     8.7110    -7.2620 hc         1 0UF      -0.000300
@<TRIPOS>BOND
     1     1     2 1   
     2     2     3 1   
     3     2     4 1   
     4     2     5 1   
     5     5     6 1   
     6     5    38 1   
     7     5    39 1   
     8     6     7 1   
     9     6    40 1   
    10     6    41 1   
    11     7     8 1   
    12     7    42 1   
    13     7    43 1   
    14     8     9 1   
    15     8    16 1   
    16     9    10 ar  
    17     9    14 ar  
    18    10    11 ar  
    19    10    44 1   
    20    11    12 ar  
    21    11    45 1   
    22    12    13 ar  
    23    12    46 1   
    24    13    14 ar  
    25    13    47 1   
    26    14    15 1   
    27    15    16 1   
    28    16    17 2   
    29    17    18 1   
    30    17    48 1   
    31    18    19 2   
    32    18    49 1   
    33    19    20 1   
    34    19    50 1   
    35    20    21 2   
    36    20    51 1   
    37    21    22 1   
    38    21    24 1   
    39    22    23 2   
    40    22    33 1   
    41    24    25 2   
    42    24    26 1   
    43    26    27 1   
    44    26    31 1   
    45    27    28 1   
    46    27    52 1   
    47    27    53 1   
    48    28    29 1   
    49    28    54 1   
    50    28    55 1   
    51    29    30 1   
    52    29    56 1   
    53    29    57 1   
    54    30    58 1   
    55    30    59 1   
    56    30    60 1   
    57    31    32 2   
    58    31    33 1   
    59    33    34 1   
    60    34    35 1   
    61    34    61 1   
    62    34    62 1   
    63    35    36 1   
    64    35    63 1   
    65    35    64 1   
    66    36    37 1   
    67    36    65 1   
    68    36    66 1   
    69    37    67 1   
    70    37    68 1   
    71    37    69 1   
@<TRIPOS>SUBSTRUCTURE
     1 0UF         1 TEMP              0 ****  ****    0 ROOT
