@<TRIPOS>MOLECULE
0UF
   69    72     1     0     0
SMALL
bcc


@<TRIPOS>ATOM
      1 O5           0.2290     1.7310    -1.1650 o          1 0UF      -0.747867
      2 S1           0.2400     0.9930     0.0390 s6         1 0UF       1.429800
      3 O4           0.0240     1.7840     1.1960 o          1 0UF      -0.747867
      4 O6          -0.5080    -0.2020     0.0020 o          1 0UF      -0.747867
      5 C13          1.9350     0.4290     0.2130 c3         1 0UF      -0.301600
      6 C4           2.9370     1.5470     0.1750 c3         1 0UF      -0.044400
      7 C1           3.0270     2.2920     1.5050 c3         1 0UF       0.008300
      8 N1           4.0730     1.8970     2.4340 na         1 0UF      -0.094400
      9 C8           5.0090     0.8530     2.2280 ca         1 0UF      -0.035200
     10 C17          4.9360    -0.3880     1.6000 ca         1 0UF      -0.111000
     11 C23          6.0640    -1.2170     1.6560 ca         1 0UF      -0.131000
     12 C26          7.2310    -0.8430     2.3190 ca         1 0UF      -0.144000
     13 C20          7.3280     0.3930     2.9760 ca         1 0UF      -0.116000
     14 C14          6.2160     1.2070     2.9180 ca         1 0UF       0.036100
     15 O1           6.0630     2.4640     3.5180 os         1 0UF      -0.234200
     16 C9           4.7350     2.8820     3.2060 cc         1 0UF       0.203000
     17 C18          4.3340     4.0640     3.7480 cf         1 0UF      -0.289000
     18 C24          3.0190     4.6210     3.6440 cf         1 0UF       0.034000
     19 C25          2.6890     5.8230     4.0880 cu         1 0UF      -0.199400
     20 C19          1.6890     6.8540     4.2880 cx         1 0UF       0.008800
     21 C10          3.1380     7.0770     4.7460 cx         1 0UF      -0.277800
     22 C12          3.4190     7.0390     6.2110 c          1 0UF       0.741000
     23 O3           2.5760     6.6890     7.0500 o          1 0UF      -0.581000
     24 C11          3.9830     8.0200     3.9590 c          1 0UF       0.741000
     25 O2           3.6190     8.5210     2.8850 o          1 0UF      -0.581000
     26 N2           5.2660     8.3250     4.4730 n          1 0UF      -0.457900
     27 C2           6.1890     9.0510     3.6100 c3         1 0UF       0.079000
     28 C5           6.0320    10.5710     3.6620 c3         1 0UF      -0.095900
     29 C15          7.0310    11.2430     2.7440 c3         1 0UF      -0.074400
     30 C21          6.6480    11.1420     1.2900 c3         1 0UF      -0.095600
     31 C7           5.6590     8.0010     5.7790 cs         1 0UF       0.586400
     32 S2           7.1630     8.3190     6.2970 s          1 0UF      -0.543400
     33 N3           4.7140     7.4230     6.6370 n          1 0UF      -0.457900
     34 C3           5.0780     7.1650     8.0250 c3         1 0UF       0.079000
     35 C6           5.6030     5.7520     8.2810 c3         1 0UF      -0.095900
     36 C16          5.9260     5.5600     9.7480 c3         1 0UF      -0.074400
     37 C22          4.6960     5.3570    10.5950 c3         1 0UF      -0.095600
     38 H1           2.1440    -0.2860    -0.6170 h1         1 0UF       0.068200
     39 H2           2.0080    -0.1410     1.1690 h1         1 0UF       0.068200
     40 H3           2.6010     2.2940    -0.6010 hc         1 0UF       0.048700
     41 H4           3.9450     1.1780    -0.1500 hc         1 0UF       0.048700
     42 H5           3.1680     3.3910     1.2800 h1         1 0UF       0.084700
     43 H6           2.0410     2.1650     2.0550 h1         1 0UF       0.084700
     44 H7           4.0240    -0.7140     1.0760 ha         1 0UF       0.176000
     45 H8           6.0170    -2.1980     1.1590 ha         1 0UF       0.132000
     46 H9           8.0930    -1.5250     2.3370 ha         1 0UF       0.128000
     47 H10          8.2370     0.6950     3.5110 ha         1 0UF       0.145000
     48 H11          5.0840     4.6190     4.3350 ha         1 0UF       0.148000
     49 H13          2.2200     4.0020     3.1840 ha         1 0UF       0.172000
     50 H15          1.3350     7.4480     3.4210 hc         1 0UF       0.100200
     51 H17          0.9220     6.7270     5.0780 hc         1 0UF       0.100200
     52 H20          5.9960     8.6990     2.5540 h1         1 0UF       0.083950
     53 H21          7.2450     8.7730     3.8990 h1         1 0UF       0.083950
     54 H22          4.9890    10.8530     3.3620 hc         1 0UF       0.056450
     55 H23          6.1990    10.9300     4.7120 hc         1 0UF       0.056450
     56 H24          7.1030    12.3270     3.0300 hc         1 0UF       0.039450
     57 H25          8.0480    10.7940     2.8990 hc         1 0UF       0.039450
     58 H26          6.6250    10.0760     0.9560 hc         1 0UF       0.034033
     59 H27          5.6360    11.5820     1.1170 hc         1 0UF       0.034033
     60 H28          7.3860    11.6920     0.6570 hc         1 0UF       0.034033
     61 H29          4.1510     7.3330     8.6460 h1         1 0UF       0.083950
     62 H30          5.8640     7.9150     8.3360 h1         1 0UF       0.083950
     63 H31          4.8400     4.9970     7.9570 hc         1 0UF       0.056450
     64 H32          6.5320     5.5840     7.6740 hc         1 0UF       0.056450
     65 H33          6.5930     4.6620     9.8490 hc         1 0UF       0.039450
     66 H34          6.5050     6.4440    10.1260 hc         1 0UF       0.039450
     67 H35          4.9850     5.1780    11.6590 hc         1 0UF       0.034033
     68 H36          4.1100     4.4760    10.2340 hc         1 0UF       0.034033
     69 H37          4.0320     6.2540    10.5570 hc         1 0UF       0.034033
@<TRIPOS>BOND
     1     1     2 1   
     2     2     3 1   
     3     2     4 1   
     4     2     5 1   
     5     5     6 1   
     6     5    38 1   
     7     5    39 1   
     8     6     7 1   
     9     6    40 1   
    10     6    41 1   
    11     7     8 1   
    12     7    42 1   
    13     7    43 1   
    14     8     9 1   
    15     8    16 1   
    16     9    10 ar  
    17     9    14 ar  
    18    10    11 ar  
    19    10    44 1   
    20    11    12 ar  
    21    11    45 1   
    22    12    13 ar  
    23    12    46 1   
    24    13    14 ar  
    25    13    47 1   
    26    14    15 1   
    27    15    16 1   
    28    16    17 2   
    29    17    18 1   
    30    17    48 1   
    31    18    19 2   
    32    18    49 1   
    33    19    20 1   
    34    19    21 1   
    35    20    21 1   
    36    20    50 1   
    37    20    51 1   
    38    21    22 1   
    39    21    24 1   
    40    22    23 2   
    41    22    33 1   
    42    24    25 2   
    43    24    26 1   
    44    26    27 1   
    45    26    31 1   
    46    27    28 1   
    47    27    52 1   
    48    27    53 1   
    49    28    29 1   
    50    28    54 1   
    51    28    55 1   
    52    29    30 1   
    53    29    56 1   
    54    29    57 1   
    55    30    58 1   
    56    30    59 1   
    57    30    60 1   
    58    31    32 2   
    59    31    33 1   
    60    33    34 1   
    61    34    35 1   
    62    34    61 1   
    63    34    62 1   
    64    35    36 1   
    65    35    63 1   
    66    35    64 1   
    67    36    37 1   
    68    36    65 1   
    69    36    66 1   
    70    37    67 1   
    71    37    68 1   
    72    37    69 1   
@<TRIPOS>SUBSTRUCTURE
     1 0UF         1 TEMP              0 ****  ****    0 ROOT
