@<TRIPOS>MOLECULE
molecule
   69    71     1     0     0
SMALL
bcc


@<TRIPOS>ATOM
      1 O5           0.0000     0.0000     0.0000 o          1 0UF      -0.693200
      2 S1           1.4210     0.0000     0.0000 s6         1 0UF       1.244800
      3 O4           2.1540     0.0000     1.2180 o          1 0UF      -0.693200
      4 O6           1.7970    -1.3170    -0.6630 o          1 0UF      -0.693200
      5 C13          2.0590     1.2720    -1.1260 c3         1 0UF      -0.256600
      6 C4           1.7390     2.6590    -0.5620 c3         1 0UF      -0.077400
      7 C1           2.2760     3.7310    -1.5120 c3         1 0UF       0.046300
      8 N1           1.9710     5.0580    -0.9720 na         1 0UF      -0.082400
      9 C8           2.7740     5.8060    -0.1160 ca         1 0UF      -0.053200
     10 C17          4.0140     5.5780     0.4640 ca         1 0UF      -0.104000
     11 C23          4.5710     6.5320     1.2920 ca         1 0UF      -0.125000
     12 C26          3.8970     7.7140     1.5440 ca         1 0UF      -0.123000
     13 C20          2.6620     7.9490     0.9720 ca         1 0UF      -0.091000
     14 C14          2.0940     6.9970     0.1380 ca         1 0UF       0.046100
     15 O1           0.9250     6.9520    -0.5460 os         1 0UF      -0.123200
     16 C9           0.8500     5.7920    -1.2190 cc         1 0UF       0.249000
     17 C18         -0.2050     5.4020    -2.0350 ce         1 0UF      -0.307000
     18 C24         -1.2940     6.2400    -2.2070 ce         1 0UF      -0.223000
     19 C25         -2.3510     5.8480    -3.0250 cf         1 0UF      -0.196000
     20 C19         -2.3140     4.6250    -3.6630 cf         1 0UF       0.153000
     21 C10         -3.4250     4.1830    -4.4000 cc         1 0UF      -0.485400
     22 C12         -4.6440     4.9160    -4.3960 c          1 0UF       0.717700
     23 O3          -4.7440     5.9440    -3.7500 o          1 0UF      -0.623500
     24 C11         -3.3600     2.9950    -5.1770 c          1 0UF       0.717700
     25 O2          -2.3360     2.3360    -5.2150 o          1 0UF      -0.623500
     26 N2          -4.4490     2.6060    -5.8710 n          1 0UF      -0.406400
     27 C2          -4.3960     1.3830    -6.6750 c3         1 0UF       0.092000
     28 C5          -4.8270     0.1900    -5.8180 c3         1 0UF      -0.098400
     29 C15         -4.7700    -1.0880    -6.6580 c3         1 0UF      -0.078900
     30 C21         -5.2010    -2.2800    -5.8020 c3         1 0UF      -0.090100
     31 C7          -5.5840     3.3250    -5.8340 cs         1 0UF       0.612400
     32 S2          -6.9370     2.7860    -6.7330 s          1 0UF      -0.718400
     33 N3          -5.6850     4.4580    -5.1180 n          1 0UF      -0.406400
     34 C3          -6.9470     5.2030    -5.1220 c3         1 0UF       0.092000
     35 C6          -6.9320     6.2240    -6.2610 c3         1 0UF      -0.098400
     36 C16         -8.2490     7.0030    -6.2640 c3         1 0UF      -0.078900
     37 C22         -8.2350     8.0240    -7.4040 c3         1 0UF      -0.090100
     38 H1           3.1320     1.1610    -1.2250 h1         1 0UF       0.078200
     39 H2           1.5920     1.1610    -2.0970 h1         1 0UF       0.078200
     40 H3           2.2060     2.7700     0.4090 hc         1 0UF       0.059200
     41 H4           0.6660     2.7690    -0.4620 hc         1 0UF       0.059200
     42 H5           3.3490     3.6190    -1.6120 h1         1 0UF       0.074700
     43 H6           1.8090     3.6200    -2.4830 h1         1 0UF       0.074700
     44 H7           4.7820     4.8180     0.3710 ha         1 0UF       0.164000
     45 H8           5.5340     6.4010     1.7710 ha         1 0UF       0.146000
     46 H9           4.3340     8.4620     2.1940 ha         1 0UF       0.144000
     47 H10          2.1500     8.8790     1.1890 ha         1 0UF       0.153000
     48 H11         -0.1750     4.4420    -2.5370 ha         1 0UF       0.174000
     49 H13         -1.2850     5.3740    -1.5560 ha         1 0UF       0.311000
     50 H15         -1.7770     5.6420    -3.9190 ha         1 0UF       0.120000
     51 H17         -1.3950     4.0520    -3.6770 ha         1 0UF       0.115000
     52 H20         -5.0630     1.4790    -7.5230 h1         1 0UF       0.083700
     53 H21         -3.3830     1.2270    -7.0280 h1         1 0UF       0.083700
     54 H22         -5.8400     0.3460    -5.4660 hc         1 0UF       0.058950
     55 H23         -4.1600     0.0940    -4.9700 hc         1 0UF       0.058950
     56 H24         -3.7580    -1.2440    -7.0110 hc         1 0UF       0.039700
     57 H25         -5.4370    -0.9930    -7.5070 hc         1 0UF       0.039700
     58 H26         -6.2140    -2.1240    -5.4500 hc         1 0UF       0.031700
     59 H27         -4.5340    -2.3760    -4.9540 hc         1 0UF       0.031700
     60 H28         -5.1610    -3.1850    -6.3970 hc         1 0UF       0.031700
     61 H29         -7.0640     5.7180    -4.1760 h1         1 0UF       0.083700
     62 H30         -7.7720     4.5150    -5.2630 h1         1 0UF       0.083700
     63 H31         -6.8150     5.7080    -7.2060 hc         1 0UF       0.058950
     64 H32         -6.1060     6.9110    -6.1190 hc         1 0UF       0.058950
     65 H33         -9.0750     6.3160    -6.4060 hc         1 0UF       0.039700
     66 H34         -8.3660     7.5190    -5.3190 hc         1 0UF       0.039700
     67 H35         -8.1160     7.5080    -8.3490 hc         1 0UF       0.031700
     68 H36         -9.1670     8.5750    -7.4070 hc         1 0UF       0.031700
     69 H37         -7.4090     8.7110    -7.2620 hc         1 0UF       0.031700
@<TRIPOS>BOND
     1     1     2 1   
     2    18    17 1   
     3    18    19 2   
     4    37    36 1   
     5    17    16 2   
     6    19    20 1   
     7     3     2 1   
     8     2     4 1   
     9     2     5 1   
    10    23    22 2   
    11     7     6 1   
    12     7     8 1   
    13    16     8 1   
    14    16    15 1   
    15    36    35 1   
    16    20    21 2   
    17     6     5 1   
    18    22    21 1   
    19    22    33 1   
    20     8     9 1   
    21    34    35 1   
    22    34    33 1   
    23    15    14 1   
    24    21    24 1   
    25    33    31 1   
    26     9    14 ar  
    27     9    10 ar  
    28    14    13 ar  
    29    24    25 2   
    30    24    26 1   
    31    10    11 ar  
    32    13    12 ar  
    33    31    26 1   
    34    31    32 2   
    35    26    27 1   
    36    11    12 ar  
    37    28    27 1   
    38    28    29 1   
    39    29    30 1   
    40     5    38 1   
    41     5    39 1   
    42     6    40 1   
    43     6    41 1   
    44     7    42 1   
    45     7    43 1   
    46    10    44 1   
    47    11    45 1   
    48    12    46 1   
    49    13    47 1   
    50    17    48 1   
    51    18    49 1   
    52    19    50 1   
    53    20    51 1   
    54    27    52 1   
    55    27    53 1   
    56    28    54 1   
    57    28    55 1   
    58    29    56 1   
    59    29    57 1   
    60    30    58 1   
    61    30    59 1   
    62    30    60 1   
    63    34    61 1   
    64    34    62 1   
    65    35    63 1   
    66    35    64 1   
    67    36    65 1   
    68    36    66 1   
    69    37    67 1   
    70    37    68 1   
    71    37    69 1   
@<TRIPOS>SUBSTRUCTURE
     1 0UF         1 TEMP              0 ****  ****    0 ROOT
