@<TRIPOS>MOLECULE
0UJ
   46    50     1     0     0
SMALL
bcc


@<TRIPOS>ATOM
      1 C4           0.0000     0.0000     0.0000 c3         1 0UJ       0.171500
      2 C14          2.2970    -1.2760     3.2340 c3         1 0UJ      -0.045400
      3 C5           1.5070     0.0000     0.0000 cc         1 0UJ       0.163800
      4 C11          0.0480    -1.6330     2.4510 c3         1 0UJ      -0.044400
      5 C7           1.8180    -0.0010     2.5040 c3         1 0UJ      -0.059000
      6 C9           0.2620    -0.0820     2.5500 c3         1 0UJ      -0.136700
      7 C12          0.9850    -2.0070     3.6530 c3         1 0UJ      -0.042700
      8 N3          -0.4880     1.3690     0.1800 n7         1 0UJ      -0.595100
      9 S2          -2.0640     1.7380    -0.1710 s6         1 0UJ       0.952900
     10 N6           2.2880     0.0000     1.1170 na         1 0UJ       0.355700
     11 C15         -0.0970     0.1630     4.0480 c3         1 0UJ      -0.015400
     12 C16          0.3820    -1.1120     4.7780 c3         1 0UJ      -0.029400
     13 C17          3.5960    -0.0010     0.7020 ca         1 0UJ      -0.194200
     14 C18          4.8460    -0.0010     1.3360 ca         1 0UJ      -0.202100
     15 C19          5.2910    -0.0020     2.7280 cc         1 0UJ      -0.169200
     16 C20          6.6330    -0.0020     2.7100 cd         1 0UJ      -0.279100
     17 N21          7.0790    -0.0020     1.4170 na         1 0UJ       0.287900
     18 C23          6.0110    -0.0020     0.5500 ca         1 0UJ       0.224800
     19 N24          5.9230    -0.0000    -0.7780 nb         1 0UJ      -0.586000
     20 C25          4.7710     0.0000    -1.4080 ca         1 0UJ       0.488200
     21 C26          3.5620    -0.0000    -0.7030 ca         1 0UJ      -0.094900
     22 N27          2.2540    -0.0040    -1.0650 nd         1 0UJ      -0.458100
     23 O28         -2.1730     3.1250     0.1220 o          1 0UJ      -0.575800
     24 O29         -2.2530     1.2520    -1.4920 o          1 0UJ      -0.575800
     25 H1          -0.3610    -0.3910    -0.9440 h1         1 0UJ       0.053700
     26 H2          -0.3610    -0.6220     0.8100 h1         1 0UJ       0.053700
     27 H4           2.8800    -1.0140     4.1090 hc         1 0UJ       0.035700
     28 H5          -0.9820    -1.9120     2.6410 hc         1 0UJ       0.032200
     29 H6           0.4160    -2.0320     1.5140 hc         1 0UJ       0.032200
     30 H7           2.1650     0.8840     3.0230 h1         1 0UJ       0.051700
     31 H8          -0.2730     0.5180     1.8230 hc         1 0UJ       0.105700
     32 H9           1.0720    -3.0640     3.8750 hc         1 0UJ       0.052700
     33 H10          0.1450     2.0930     0.4560 hn         1 0UJ       0.361800
     34 H11         -2.7870    -0.2880     0.9000 h1         1 0UJ       0.062700
     35 H12         -2.8000     1.0810     2.0200 h1         1 0UJ       0.062700
     36 H13         -4.0890     0.9070     0.8210 h1         1 0UJ       0.062700
     37 H14         -1.1670     0.2860     4.1650 hc         1 0UJ       0.018200
     38 H15          0.4270     1.0330     4.4250 hc         1 0UJ       0.018200
     39 H16         -0.4550    -1.6130     5.2510 hc         1 0UJ       0.019200
     40 H17          1.1400    -0.8650     5.5110 hc         1 0UJ       0.019200
     41 H18          4.6580    -0.0020     3.6080 ha         1 0UJ       0.129000
     42 H19          7.2680    -0.0020     3.5880 h4         1 0UJ       0.142000
     43 H20          8.0420    -0.0020     1.1410 hn         1 0UJ       0.117700
     44 H21          4.7560     0.0010    -2.4910 h4         1 0UJ      -0.013900
     45 H3           2.8790    -1.8990     2.5640 hc         1 0UJ       0.035700
     46 C1          -3.0320     0.7610     1.0120 c3         1 0UJ       0.005700
@<TRIPOS>BOND
     1     1     3 1   
     2     1     8 1   
     3     1    25 1   
     4     1    26 1   
     5     2     5 1   
     6     2     7 1   
     7     2    27 1   
     8     2    45 1   
     9     3    10 1   
    10     3    22 2   
    11     4     6 1   
    12     4     7 1   
    13     4    28 1   
    14     4    29 1   
    15     5     6 1   
    16     5    10 1   
    17     5    30 1   
    18     6    11 1   
    19     6    31 1   
    20     7    12 1   
    21     7    32 1   
    22     8     9 1   
    23     8    33 1   
    24     9    23 2   
    25     9    24 2   
    26     9    46 1   
    27    10    13 1   
    28    11    12 1   
    29    11    37 1   
    30    11    38 1   
    31    12    39 1   
    32    12    40 1   
    33    13    14 ar  
    34    13    21 ar  
    35    14    15 1   
    36    14    18 ar  
    37    15    16 2   
    38    15    41 1   
    39    16    17 1   
    40    16    42 1   
    41    17    18 1   
    42    17    43 1   
    43    18    19 ar  
    44    19    20 ar  
    45    20    21 ar  
    46    20    44 1   
    47    21    22 1   
    48    34    46 1   
    49    35    46 1   
    50    36    46 1   
@<TRIPOS>SUBSTRUCTURE
     1 0UJ         1 TEMP              0 ****  ****    0 ROOT
