@<TRIPOS>MOLECULE
0UJ
   47    51     1     0     0
SMALL
bcc


@<TRIPOS>ATOM
      1 C4          -0.2700     0.4560     0.6150 c3         1 0UJ       0.126500
      2 C14          2.7430     0.6190     3.8830 c3         1 0UJ      -0.091400
      3 C5           1.2130     0.3860     0.4020 cc         1 0UJ       0.275800
      4 C11          2.8000    -1.7860     3.9180 c3         1 0UJ      -0.089400
      5 C7           1.7480     0.0830     2.8150 c3         1 0UJ       0.041000
      6 C9           1.4420    -1.3720     3.3110 c3         1 0UJ      -0.094700
      7 C12          2.8950    -0.5600     4.8610 c3         1 0UJ      -0.075700
      8 N3          -1.0020     0.0940    -0.6300 ny         1 0UJ      -0.696900
      9 S2          -0.7800     1.3550    -2.0680 s6         1 0UJ       1.436900
     10 N6           2.1620     0.1650     1.4320 na         1 0UJ      -0.089300
     11 C15          0.5780    -1.2130     4.5800 c3         1 0UJ      -0.084400
     12 C16          1.5660    -0.6790     5.6350 c3         1 0UJ      -0.084400
     13 C17          3.4100     0.1630     0.7980 ca         1 0UJ       0.036800
     14 C18          4.7500    -0.0310     1.1810 ca         1 0UJ      -0.194100
     15 C19          5.4990    -0.3260     2.3710 cc         1 0UJ      -0.182200
     16 C20          6.8480    -0.3890     2.0150 cd         1 0UJ      -0.098100
     17 N21          6.9970    -0.1520     0.6530 na         1 0UJ      -0.249100
     18 C23          5.7320     0.0680     0.1010 ca         1 0UJ       0.422800
     19 N24          5.4740     0.3200    -1.2320 nb         1 0UJ      -0.648000
     20 C25          4.2080     0.4800    -1.5660 ca         1 0UJ       0.484200
     21 C26          3.1410     0.4090    -0.6160 ca         1 0UJ      -0.072900
     22 N27          1.7750     0.5450    -0.8210 nd         1 0UJ      -0.591100
     23 O28         -0.1530     0.6100    -3.0330 o          1 0UJ      -0.534300
     24 O29         -0.3210     2.4950    -1.4580 o          1 0UJ      -0.534300
     25 C1          -2.4010     1.4860    -2.3970 c3         1 0UJ      -0.468300
     26 H1          -0.5590     1.5140     0.8940 hx         1 0UJ       0.113200
     27 H2          -0.5780    -0.2450     1.4460 hx         1 0UJ       0.113200
     28 H5           3.6120    -1.8410     3.1600 hc         1 0UJ       0.069200
     29 H6           2.7460    -2.7490     4.4730 hc         1 0UJ       0.069200
     30 H7           0.8040     0.7030     2.8890 h1         1 0UJ       0.050700
     31 H8           1.0210    -2.0510     2.5470 hc         1 0UJ       0.068700
     32 H9           3.7970    -0.5050     5.5000 hc         1 0UJ       0.087700
     33 H10         -0.6450    -0.8070    -0.9600 hn         1 0UJ       0.452800
     34 H11         -2.9140     0.5400    -2.7190 h1         1 0UJ       0.164033
     35 H12         -2.5830     2.1880    -3.2680 h1         1 0UJ       0.164033
     36 H13         -3.0330     1.9230    -1.5790 h1         1 0UJ       0.164033
     37 H14          0.1630    -2.2040     4.8850 hc         1 0UJ       0.048200
     38 H15         -0.2750    -0.5120     4.4200 hc         1 0UJ       0.048200
     39 H16          1.2390     0.3040     6.0480 hc         1 0UJ       0.058700
     40 H17          1.6710    -1.3980     6.4820 hc         1 0UJ       0.058700
     41 H18          5.1170    -0.4840     3.3770 ha         1 0UJ       0.168000
     42 H19          7.7200    -0.5880     2.6450 h4         1 0UJ       0.186000
     43 H20          7.8470    -0.1390     0.1480 hn         1 0UJ       0.324700
     44 H21          3.9920     0.6750    -2.6330 h4         1 0UJ       0.049100
     45 H3           2.3010     1.5110     4.3910 hc         1 0UJ       0.073200
     46 H32         -1.9810    -0.0330    -0.3900 hn         1 0UJ       0.452800
     47 H4           3.7180     0.9340     3.4440 hc         1 0UJ       0.073200
@<TRIPOS>BOND
     1     1     3 1   
     2     1     8 1   
     3     1    26 1   
     4     1    27 1   
     5     2     5 1   
     6     2     7 1   
     7     2    45 1   
     8     2    47 1   
     9     3    10 1   
    10     3    22 2   
    11     4     6 1   
    12     4     7 1   
    13     4    28 1   
    14     4    29 1   
    15     5     6 1   
    16     5    10 1   
    17     5    30 1   
    18     6    11 1   
    19     6    31 1   
    20     7    12 1   
    21     7    32 1   
    22     8     9 1   
    23     8    33 1   
    24     8    46 1   
    25     9    23 2   
    26     9    24 2   
    27     9    25 1   
    28    10    13 1   
    29    11    12 1   
    30    11    37 1   
    31    11    38 1   
    32    12    39 1   
    33    12    40 1   
    34    13    14 ar  
    35    13    21 ar  
    36    14    15 1   
    37    14    18 ar  
    38    15    16 2   
    39    15    41 1   
    40    16    17 1   
    41    16    42 1   
    42    17    18 1   
    43    17    43 1   
    44    18    19 ar  
    45    19    20 ar  
    46    20    21 ar  
    47    20    44 1   
    48    21    22 1   
    49    25    34 1   
    50    25    35 1   
    51    25    36 1   
@<TRIPOS>SUBSTRUCTURE
     1 0UJ         1 TEMP              0 ****  ****    0 ROOT
