@<TRIPOS>MOLECULE
molecule
   46    50     1     0     0
SMALL
bcc


@<TRIPOS>ATOM
      1 C4           0.0000     0.0000     0.0000 c3         1 0UJ       0.205500
      2 C14          2.2970    -1.2760     3.2340 c3         1 0UJ      -0.093400
      3 C5           1.5070     0.0000     0.0000 cc         1 0UJ       0.381800
      4 C11          0.0480    -1.6330     2.4510 c3         1 0UJ      -0.097400
      5 C7           1.8180    -0.0010     2.5040 c3         1 0UJ       0.057000
      6 C9           0.2620    -0.0820     2.5500 c3         1 0UJ      -0.130700
      7 C12          0.9850    -2.0070     3.6530 c3         1 0UJ      -0.076700
      8 N3          -0.4880     1.3690     0.1800 n7         1 0UJ      -0.914100
      9 S2          -2.0640     1.7380    -0.1710 s6         1 0UJ       1.322900
     10 N6           2.2880     0.0000     1.1170 na         1 0UJ      -0.126300
     11 C15         -0.0970     0.1630     4.0480 c3         1 0UJ      -0.079400
     12 C16          0.3820    -1.1120     4.7780 c3         1 0UJ      -0.084400
     13 C17          3.5960    -0.0010     0.7020 ca         1 0UJ      -0.023200
     14 C18          4.8460    -0.0010     1.3360 ca         1 0UJ      -0.219100
     15 C19          5.2910    -0.0020     2.7280 cc         1 0UJ      -0.195200
     16 C20          6.6330    -0.0020     2.7100 cd         1 0UJ      -0.106100
     17 N21          7.0790    -0.0020     1.4170 na         1 0UJ      -0.264100
     18 C23          6.0110    -0.0020     0.5500 ca         1 0UJ       0.465800
     19 N24          5.9230    -0.0000    -0.7780 nb         1 0UJ      -0.717000
     20 C25          4.7710     0.0000    -1.4080 ca         1 0UJ       0.517200
     21 C26          3.5620    -0.0000    -0.7030 ca         1 0UJ      -0.069900
     22 N27          2.2540    -0.0040    -1.0650 nd         1 0UJ      -0.556100
     23 O28         -2.1730     3.1250     0.1220 o          1 0UJ      -0.618300
     24 O29         -2.2530     1.2520    -1.4920 o          1 0UJ      -0.618300
     25 H1          -0.3610    -0.3910    -0.9440 h1         1 0UJ       0.081700
     26 H2          -0.3610    -0.6220     0.8100 h1         1 0UJ       0.081700
     27 H4           2.8800    -1.0140     4.1090 hc         1 0UJ       0.062700
     28 H5          -0.9820    -1.9120     2.6410 hc         1 0UJ       0.058200
     29 H6           0.4160    -2.0320     1.5140 hc         1 0UJ       0.058200
     30 H7           2.1650     0.8840     3.0230 h1         1 0UJ       0.074700
     31 H8          -0.2730     0.5180     1.8230 hc         1 0UJ       0.110700
     32 H9           1.0720    -3.0640     3.8750 hc         1 0UJ       0.083700
     33 H10          0.1450     2.0930     0.4560 hn         1 0UJ       0.466800
     34 H11         -2.7870    -0.2880     0.9000 h1         1 0UJ       0.097367
     35 H12         -2.8000     1.0810     2.0200 h1         1 0UJ       0.097367
     36 H13         -4.0890     0.9070     0.8210 h1         1 0UJ       0.097367
     37 H14         -1.1670     0.2860     4.1650 hc         1 0UJ       0.048200
     38 H15          0.4270     1.0330     4.4250 hc         1 0UJ       0.048200
     39 H16         -0.4550    -1.6130     5.2510 hc         1 0UJ       0.047700
     40 H17          1.1400    -0.8650     5.5110 hc         1 0UJ       0.047700
     41 H18          4.6580    -0.0020     3.6080 ha         1 0UJ       0.150000
     42 H19          7.2680    -0.0020     3.5880 h4         1 0UJ       0.169000
     43 H20          8.0420    -0.0020     1.1410 hn         1 0UJ       0.306700
     44 H21          4.7560     0.0010    -2.4910 h4         1 0UJ       0.040100
     45 H3           2.8790    -1.8990     2.5640 hc         1 0UJ       0.062700
     46 C1          -3.0320     0.7610     1.0120 c3         1 0UJ      -0.251300
@<TRIPOS>BOND
     1    24     9 2   
     2    23     9 2   
     3     9    46 1   
     4     9     8 1   
     5     8     1 1   
     6    22    21 1   
     7    22     3 2   
     8    20    21 ar  
     9    20    19 ar  
    10     1     3 1   
    11    21    13 ar  
    12     3    10 1   
    13    19    18 ar  
    14    13    10 1   
    15    13    14 ar  
    16    10     5 1   
    17    18    14 ar  
    18    18    17 1   
    19    14    15 1   
    20     2     5 1   
    21     2     7 1   
    22     5     6 1   
    23    17    16 1   
    24    15    16 2   
    25     7    12 1   
    26     7     4 1   
    27     6    11 1   
    28     6     4 1   
    29    12    11 1   
    30     1    25 1   
    31     1    26 1   
    32     2    45 1   
    33     2    27 1   
    34     4    28 1   
    35     4    29 1   
    36     5    30 1   
    37     6    31 1   
    38     7    32 1   
    39     8    33 1   
    40    46    34 1   
    41    46    35 1   
    42    46    36 1   
    43    11    37 1   
    44    11    38 1   
    45    12    39 1   
    46    12    40 1   
    47    15    41 1   
    48    16    42 1   
    49    17    43 1   
    50    20    44 1   
@<TRIPOS>SUBSTRUCTURE
     1 0UJ         1 TEMP              0 ****  ****    0 ROOT
