@<TRIPOS>MOLECULE
0UL
   25    27     1     0     0
SMALL
bcc


@<TRIPOS>ATOM
      1 CAE         -0.0040    -0.3290     0.0540 ca         1 0UL      -0.106000
      2 CAC          1.3880    -0.2790     0.0560 ca         1 0UL      -0.133000
      3 CAB          2.0750     0.0990     1.2100 ca         1 0UL      -0.119000
      4 CAD          1.3650     0.4220     2.3660 ca         1 0UL      -0.133000
      5 CAF         -0.0290     0.3750     2.3720 ca         1 0UL      -0.106000
      6 CAM         -0.7220     0.0050     1.2120 ca         1 0UL      -0.137500
      7 CAN         -2.1910    -0.0340     1.1980 cc         1 0UL       0.389800
      8 NAI         -2.8560    -0.5260     2.3110 nc         1 0UL      -0.619000
      9 CAG         -4.1700    -0.5700     2.2950 cd         1 0UL       0.430200
     10 CAO         -4.9540    -0.1230     1.1660 cd         1 0UL      -0.123600
     11 NAJ         -6.2870    -0.0670     0.9180 nc         1 0UL      -0.397300
     12 CAL         -6.3520     0.4800    -0.3990 cc         1 0UL       0.701200
     13 NAA         -7.5450     0.6130    -1.1070 nv         1 0UL      -0.850800
     14 NAK         -5.0880     0.7720    -0.9380 nd         1 0UL      -0.620100
     15 NAP         -4.2350     0.3920     0.0240 na         1 0UL       0.190000
     16 CAH         -2.8550     0.4300     0.0560 cd         1 0UL      -0.131600
     17 H1          -0.5390    -0.6430    -0.8540 ha         1 0UL       0.140500
     18 H2           1.9450    -0.5420    -0.8550 ha         1 0UL       0.135500
     19 H3           3.1740     0.1370     1.2090 ha         1 0UL       0.134000
     20 H4           1.9040     0.7150     3.2790 ha         1 0UL       0.135500
     21 H5          -0.5820     0.6270     3.2900 ha         1 0UL       0.140500
     22 H6          -4.6950    -0.9680     3.1820 h4         1 0UL       0.056100
     23 H7          -8.3600     0.6490    -0.5340 hn         1 0UL       0.416300
     24 H8          -7.5210     1.2930    -1.8350 hn         1 0UL       0.416300
     25 H9          -2.3290     0.8340    -0.8260 h4         1 0UL       0.190000
@<TRIPOS>BOND
     1     1     2 ar  
     2     1     6 ar  
     3     1    17 1   
     4     2     3 ar  
     5     2    18 1   
     6     3     4 ar  
     7     3    19 1   
     8     4     5 ar  
     9     4    20 1   
    10     5     6 ar  
    11     5    21 1   
    12     6     7 1   
    13     7     8 1   
    14     7    16 2   
    15     8     9 2   
    16     9    10 1   
    17     9    22 1   
    18    10    11 2   
    19    10    15 1   
    20    11    12 1   
    21    12    13 1   
    22    12    14 2   
    23    13    23 1   
    24    13    24 1   
    25    14    15 1   
    26    15    16 1   
    27    16    25 1   
@<TRIPOS>SUBSTRUCTURE
     1 0UL         1 TEMP              0 ****  ****    0 ROOT
