@<TRIPOS>MOLECULE
0UL
   25    27     1     0     0
SMALL
bcc


@<TRIPOS>ATOM
      1 CAE          0.0000     0.0000     0.0000 ca         1 0UL      -0.077500
      2 CAC          1.3800     0.0000     0.0000 ca         1 0UL      -0.103500
      3 CAB          2.0740     0.0000     1.1970 ca         1 0UL      -0.087000
      4 CAD          1.3900     0.0010     2.3990 ca         1 0UL      -0.103500
      5 CAF          0.0100     0.0010     2.4110 ca         1 0UL      -0.077500
      6 CAM         -0.6940     0.0010     1.2080 ca         1 0UL      -0.155500
      7 CAN         -2.1780     0.0060     1.2140 cc         1 0UL       0.419800
      8 NAI         -2.8440     0.0110     0.0510 nc         1 0UL      -0.557000
      9 CAG         -4.1550     0.0160     0.0190 cd         1 0UL       0.456200
     10 CAO         -4.8840     0.0170     1.2230 cd         1 0UL      -0.306600
     11 NAJ         -6.1800     0.0220     1.5060 nc         1 0UL      -0.397300
     12 CAL         -6.3510     0.0210     2.8240 cc         1 0UL       0.664200
     13 NAA         -7.5820     0.0240     3.4750 nv         1 0UL      -0.528800
     14 NAK         -5.1730     0.0140     3.4200 nd         1 0UL      -0.799100
     15 NAP         -4.2040     0.0120     2.4110 na         1 0UL       0.713000
     16 CAH         -2.8470     0.0010     2.4030 cd         1 0UL      -0.328600
     17 H1          -0.5430     0.0000    -0.9380 ha         1 0UL       0.116000
     18 H2           1.9210    -0.0010    -0.9390 ha         1 0UL       0.105500
     19 H3           3.1580     0.0000     1.1930 ha         1 0UL       0.103000
     20 H4           1.9380     0.0010     3.3330 ha         1 0UL       0.105500
     21 H5          -0.5250     0.0020     3.3530 ha         1 0UL       0.116000
     22 H6          -4.6750     0.0200    -0.9310 h4         1 0UL       0.004100
     23 H7          -8.1980     0.8060     3.3760 hn         1 0UL       0.278300
     24 H8          -7.8490    -0.7550     4.0440 hn         1 0UL       0.278300
     25 H9          -2.3010    -0.1200     3.3310 h4         1 0UL       0.162000
@<TRIPOS>BOND
     1     1     2 ar  
     2     1     6 ar  
     3     1    17 1   
     4     2     3 ar  
     5     2    18 1   
     6     3     4 ar  
     7     3    19 1   
     8     4     5 ar  
     9     4    20 1   
    10     5     6 ar  
    11     5    21 1   
    12     6     7 1   
    13     7     8 1   
    14     7    16 2   
    15     8     9 2   
    16     9    10 1   
    17     9    22 1   
    18    10    11 2   
    19    10    15 1   
    20    11    12 1   
    21    12    13 1   
    22    12    14 2   
    23    13    23 1   
    24    13    24 1   
    25    14    15 1   
    26    15    16 1   
    27    16    25 1   
@<TRIPOS>SUBSTRUCTURE
     1 0UL         1 TEMP              0 ****  ****    0 ROOT
