@<TRIPOS>MOLECULE
0UM
   59    61     1     0     0
SMALL
bcc


@<TRIPOS>ATOM
      1 C4           0.0000     0.0000     0.0000 ca         1 0UM       0.235800
      2 C5           1.4050     0.0000     0.0000 ca         1 0UM      -0.188200
      3 C6           2.0690     0.0000     1.2380 ca         1 0UM       0.599200
      4 C8           0.7600     0.0030    -2.0710 cc         1 0UM       0.266700
      5 N1           1.3380    -0.0010     2.3490 nb         1 0UM      -0.654000
      6 N3          -0.6460     0.0000     1.1610 nb         1 0UM      -0.607000
      7 C           -1.0050    -3.2870   -10.1850 c          1 0UM       0.958600
      8 CA          -1.4840    -2.0010    -9.5630 c3         1 0UM      -0.204500
      9 N           -2.6780    -1.5270   -10.2760 nz         1 0UM       0.079400
     10 CB          -1.8300    -2.2420    -8.0930 c3         1 0UM      -0.021400
     11 CAM         -2.1970    -0.9120    -7.4300 c3         1 0UM      -0.053400
     12 CAY         -2.5430    -1.1540    -5.9600 c3         1 0UM       0.128500
     13 NAR         -3.7550    -1.9790    -5.8710 n7         1 0UM      -0.583200
     14 CAK         -4.8920    -1.3140    -6.5190 c3         1 0UM       0.124800
     15 CAJ         -6.1330    -2.2020    -6.4070 c3         1 0UM      -0.030400
     16 CAA         -7.3190    -1.5110    -7.0830 c3         1 0UM       0.009900
     17 CBB         -3.0100    -0.0440    -3.7710 c3         1 0UM       0.166100
     18 OAS         -1.8000    -0.5300    -3.1650 os         1 0UM      -0.398600
     19 CAZ         -3.3640     1.2880    -3.0810 c3         1 0UM       0.125100
     20 OAF         -4.6540     1.2080    -2.4700 oh         1 0UM      -0.551800
     21 CBA         -2.2650     1.4610    -2.0040 c3         1 0UM       0.120100
     22 OAG         -2.8190     1.9590    -0.7850 oh         1 0UM      -0.537800
     23 CBC         -1.7520     0.0090    -1.8270 c3         1 0UM       0.161800
     24 N9          -0.3780     0.0060    -1.3190 na         1 0UM       0.197000
     25 N7           1.8050     0.0000    -1.2940 nd         1 0UM      -0.487100
     26 C2           0.0170     0.0000     2.2980 ca         1 0UM       0.637900
     27 N6           3.4510    -0.0020     1.3020 nv         1 0UM      -0.644500
     28 H1           0.7890     0.0030    -3.1540 h5         1 0UM       0.038800
     29 H3          -0.7020    -1.2540    -9.6330 hx         1 0UM       0.084700
     30 H7          -0.9740    -2.6730    -7.5870 hc         1 0UM       0.065200
     31 H8          -2.6700    -2.9220    -8.0270 hc         1 0UM       0.065200
     32 H9          -1.3560    -0.2310    -7.4960 hc         1 0UM       0.009200
     33 H10         -3.0520    -0.4800    -7.9360 hc         1 0UM       0.009200
     34 H11         -1.7210    -1.6670    -5.4750 h1         1 0UM       0.065700
     35 H12         -3.9720    -2.1500    -4.9090 hn         1 0UM       0.274800
     36 H14         -4.6630    -1.1440    -7.5640 h1         1 0UM       0.002200
     37 H15         -5.0820    -0.3660    -6.0310 h1         1 0UM       0.002200
     38 H16         -5.9440    -3.1510    -6.8950 hc         1 0UM       0.024200
     39 H17         -6.3630    -2.3730    -5.3620 hc         1 0UM       0.024200
     40 H18         -7.1290    -1.4260    -8.1460 hc         1 0UM       0.000367
     41 H19         -8.2170    -2.0940    -6.9220 hc         1 0UM       0.000367
     42 H20         -7.4490    -0.5220    -6.6590 hc         1 0UM       0.000367
     43 H23         -3.8100    -0.7590    -3.6190 h1         1 0UM       0.045700
     44 H24         -3.3260     2.1040    -3.7930 h1         1 0UM       0.013700
     45 H25         -5.1430     1.9910    -2.6630 ho         1 0UM       0.393000
     46 H26         -1.4730     2.1050    -2.3670 h1         1 0UM       0.023700
     47 H27         -2.7220     2.8960    -0.7560 ho         1 0UM       0.391000
     48 H28         -2.4090    -0.5470    -1.1710 h2         1 0UM       0.074700
     49 H29         -0.5400    -0.0000     3.2270 h5         1 0UM       0.000100
     50 H30          3.9520     0.8650     1.3120 hn         1 0UM       0.282800
     51 H31          3.9500    -0.8690     1.3050 hn         1 0UM       0.282800
     52 O           -1.7580    -3.9490   -10.8580 o          1 0UM      -0.818300
     53 OXT          0.2580    -3.6970    -9.9890 o          1 0UM      -0.818300
     54 H4          -3.4830    -2.0150    -9.9380 hn         1 0UM       0.210467
     55 H2          -2.7920    -0.5450   -10.1200 hn         1 0UM       0.210467
     56 CAN         -2.7870     0.1880    -5.2660 c3         1 0UM      -0.087400
     57 H5          -2.5710    -1.6990   -11.2560 hn         1 0UM       0.210467
     58 H21         -3.6630     0.6610    -5.6930 hc         1 0UM       0.034700
     59 H22         -1.9250     0.8290    -5.4070 hc         1 0UM       0.034700
@<TRIPOS>BOND
     1     1     2 ar  
     2     1     6 ar  
     3     1    24 1   
     4     2     3 ar  
     5     2    25 1   
     6     3     5 ar  
     7     3    27 1   
     8     4    24 1   
     9     4    25 2   
    10     4    28 1   
    11     5    26 ar  
    12     6    26 ar  
    13     7     8 1   
    14     7    52 1   
    15     7    53 1   
    16     8     9 1   
    17     8    10 1   
    18     8    29 1   
    19     9    54 1   
    20     9    55 1   
    21     9    57 1   
    22    10    11 1   
    23    10    30 1   
    24    10    31 1   
    25    11    12 1   
    26    11    32 1   
    27    11    33 1   
    28    12    13 1   
    29    12    34 1   
    30    12    56 1   
    31    13    14 1   
    32    13    35 1   
    33    14    15 1   
    34    14    36 1   
    35    14    37 1   
    36    15    16 1   
    37    15    38 1   
    38    15    39 1   
    39    16    40 1   
    40    16    41 1   
    41    16    42 1   
    42    17    18 1   
    43    17    19 1   
    44    17    43 1   
    45    17    56 1   
    46    18    23 1   
    47    19    20 1   
    48    19    21 1   
    49    19    44 1   
    50    20    45 1   
    51    21    22 1   
    52    21    23 1   
    53    21    46 1   
    54    22    47 1   
    55    23    24 1   
    56    23    48 1   
    57    26    49 1   
    58    27    50 1   
    59    27    51 1   
    60    56    58 1   
    61    56    59 1   
@<TRIPOS>SUBSTRUCTURE
     1 0UM         1 TEMP              0 ****  ****    0 ROOT
