@<TRIPOS>MOLECULE
molecule
   59    61     1     0     0
SMALL
bcc


@<TRIPOS>ATOM
      1 C4           0.0000     0.0000     0.0000 ca         1 0UM       0.451800
      2 C5           1.4050     0.0000     0.0000 ca         1 0UM      -0.162200
      3 C6           2.0690     0.0000     1.2380 ca         1 0UM       0.777200
      4 C8           0.7600     0.0030    -2.0710 cc         1 0UM       0.439700
      5 N1           1.3380    -0.0010     2.3490 nb         1 0UM      -0.768000
      6 N3          -0.6460     0.0000     1.1610 nb         1 0UM      -0.744000
      7 C           -1.0050    -3.2870   -10.1850 c          1 0UM       0.871600
      8 CA          -1.4840    -2.0010    -9.5630 c3         1 0UM      -0.022500
      9 N           -2.6780    -1.5270   -10.2760 nz         1 0UM      -0.790600
     10 CB          -1.8300    -2.2420    -8.0930 c3         1 0UM      -0.083400
     11 CAM         -2.1970    -0.9120    -7.4300 c3         1 0UM      -0.096400
     12 CAY         -2.5430    -1.1540    -5.9600 c3         1 0UM       0.171500
     13 NAR         -3.7550    -1.9790    -5.8710 n7         1 0UM      -0.812200
     14 CAK         -4.8920    -1.3140    -6.5190 c3         1 0UM       0.149800
     15 CAJ         -6.1330    -2.2020    -6.4070 c3         1 0UM      -0.087400
     16 CAA         -7.3190    -1.5110    -7.0830 c3         1 0UM      -0.092100
     17 CBB         -3.0100    -0.0440    -3.7710 c3         1 0UM       0.132100
     18 OAS         -1.8000    -0.5300    -3.1650 os         1 0UM      -0.415600
     19 CAZ         -3.3640     1.2880    -3.0810 c3         1 0UM       0.085100
     20 OAF         -4.6540     1.2080    -2.4700 oh         1 0UM      -0.573800
     21 CBA         -2.2650     1.4610    -2.0040 c3         1 0UM       0.085100
     22 OAG         -2.8190     1.9590    -0.7850 oh         1 0UM      -0.557800
     23 CBC         -1.7520     0.0090    -1.8270 c3         1 0UM       0.267800
     24 N9          -0.3780     0.0060    -1.3190 na         1 0UM      -0.259000
     25 N7           1.8050     0.0000    -1.2940 nd         1 0UM      -0.575100
     26 C2           0.0170     0.0000     2.2980 ca         1 0UM       0.703900
     27 N6           3.4510    -0.0020     1.3020 nv         1 0UM      -1.073500
     28 H1           0.7890     0.0030    -3.1540 h5         1 0UM       0.087800
     29 H3          -0.7020    -1.2540    -9.6330 hx         1 0UM       0.099700
     30 H7          -0.9740    -2.6730    -7.5870 hc         1 0UM       0.097200
     31 H8          -2.6700    -2.9220    -8.0270 hc         1 0UM       0.097200
     32 H9          -1.3560    -0.2310    -7.4960 hc         1 0UM       0.030200
     33 H10         -3.0520    -0.4800    -7.9360 hc         1 0UM       0.030200
     34 H11         -1.7210    -1.6670    -5.4750 h1         1 0UM       0.096700
     35 H12         -3.9720    -2.1500    -4.9090 hn         1 0UM       0.369800
     36 H14         -4.6630    -1.1440    -7.5640 h1         1 0UM       0.021200
     37 H15         -5.0820    -0.3660    -6.0310 h1         1 0UM       0.021200
     38 H16         -5.9440    -3.1510    -6.8950 hc         1 0UM       0.055200
     39 H17         -6.3630    -2.3730    -5.3620 hc         1 0UM       0.055200
     40 H18         -7.1290    -1.4260    -8.1460 hc         1 0UM       0.034033
     41 H19         -8.2170    -2.0940    -6.9220 hc         1 0UM       0.034033
     42 H20         -7.4490    -0.5220    -6.6590 hc         1 0UM       0.034033
     43 H23         -3.8100    -0.7590    -3.6190 h1         1 0UM       0.076700
     44 H24         -3.3260     2.1040    -3.7930 h1         1 0UM       0.047700
     45 H25         -5.1430     1.9910    -2.6630 ho         1 0UM       0.408000
     46 H26         -1.4730     2.1050    -2.3670 h1         1 0UM       0.058700
     47 H27         -2.7220     2.8960    -0.7560 ho         1 0UM       0.406000
     48 H28         -2.4090    -0.5470    -1.1710 h2         1 0UM       0.116700
     49 H29         -0.5400    -0.0000     3.2270 h5         1 0UM       0.064100
     50 H30          3.9520     0.8650     1.3120 hn         1 0UM       0.445300
     51 H31          3.9500    -0.8690     1.3050 hn         1 0UM       0.445300
     52 O           -1.7580    -3.9490   -10.8580 o          1 0UM      -0.775800
     53 OXT          0.2580    -3.6970    -9.9890 o          1 0UM      -0.775800
     54 H4          -3.4830    -2.0150    -9.9380 hn         1 0UM       0.437467
     55 H2          -2.7920    -0.5450   -10.1200 hn         1 0UM       0.437467
     56 CAN         -2.7870     0.1880    -5.2660 c3         1 0UM      -0.129400
     57 H5          -2.5710    -1.6990   -11.2560 hn         1 0UM       0.437467
     58 H21         -3.6630     0.6610    -5.6930 hc         1 0UM       0.057200
     59 H22         -1.9250     0.8290    -5.4070 hc         1 0UM       0.057200
@<TRIPOS>BOND
     1    16    15 1   
     2    15    14 1   
     3    20    19 1   
     4    14    13 1   
     5    19    17 1   
     6    19    21 1   
     7    13    12 1   
     8    56    17 1   
     9    56    12 1   
    10    17    18 1   
    11    21    22 1   
    12    21    23 1   
    13    12    11 1   
    14     4    25 2   
    15     4    24 1   
    16    25     2 1   
    17    18    23 1   
    18    23    24 1   
    19    24     1 1   
    20    11    10 1   
    21     2     1 ar  
    22     2     3 ar  
    23     1     6 ar  
    24    27     3 1   
    25     3     5 ar  
    26     6    26 ar  
    27     5    26 ar  
    28    10     8 1   
    29     8     9 1   
    30     8     7 1   
    31    52     7 1   
    32     7    53 1   
    33     4    28 1   
    34     8    29 1   
    35     9    54 1   
    36     9    57 1   
    37    10    30 1   
    38    10    31 1   
    39    11    32 1   
    40    11    33 1   
    41    12    34 1   
    42    13    35 1   
    43    14    36 1   
    44    14    37 1   
    45    15    38 1   
    46    15    39 1   
    47    16    40 1   
    48    16    41 1   
    49    16    42 1   
    50    56    58 1   
    51    56    59 1   
    52    17    43 1   
    53    19    44 1   
    54    20    45 1   
    55    21    46 1   
    56    22    47 1   
    57    23    48 1   
    58    26    49 1   
    59    27    50 1   
    60    27    51 1   
    61    55     9 1   
@<TRIPOS>SUBSTRUCTURE
     1 0UM         1 TEMP              0 ****  ****    0 ROOT
