@<TRIPOS>MOLECULE
0UN
   62    65     1     0     0
SMALL
bcc


@<TRIPOS>ATOM
      1 CAT          0.1030     0.2130     0.1330 c3         1 0UN       0.186800
      2 CAR          1.5850     0.6370     0.1600 c3         1 0UN       0.164800
      3 NBN          2.2100     0.4370     1.4590 n3         1 0UN      -0.733600
      4 CAB          3.6040     0.8170     1.4660 c3         1 0UN       0.157100
      5 CAS          1.9980    -0.9110     1.9670 c3         1 0UN       0.164800
      6 CAU          0.5160    -1.3370     1.9490 c3         1 0UN       0.186800
      7 NBO         -0.1010    -1.1320     0.6470 nh         1 0UN      -0.638000
      8 CBH         -1.3950    -1.6740     0.4680 ca         1 0UN       0.179600
      9 CAO         -1.9740    -1.6880    -0.8230 ca         1 0UN      -0.231000
     10 CBK         -3.1990    -2.3130    -1.0440 ca         1 0UN       0.125100
     11 OBA         -3.8170    -2.3550    -2.2830 os         1 0UN      -0.344900
     12 CAA         -3.0790    -1.8410    -3.3840 c3         1 0UN       0.119700
     13 CAK         -2.1100    -2.2860     1.5190 ca         1 0UN      -0.207000
     14 CAL         -3.3380    -2.8960     1.2950 ca         1 0UN      -0.046000
     15 CBJ         -3.9170    -2.9380     0.0170 ca         1 0UN       0.050600
     16 NAZ         -5.1960    -3.5170    -0.1930 nu         1 0UN      -0.669300
     17 C2          -5.3940    -4.9000     0.0040 ca         1 0UN       0.893900
     18 N3          -4.5350    -5.5870     0.8460 nb         1 0UN      -0.782000
     19 N1          -6.5130    -5.4700    -0.6070 nb         1 0UN      -0.752000
     20 C6          -6.7650    -6.7500    -0.3180 ca         1 0UN       0.485200
     21 C5          -5.9670    -7.5390     0.5390 ca         1 0UN      -0.296200
     22 Cl5         -6.3630    -9.1460     0.8440 cl         1 0UN      -0.047400
     23 C4          -4.8370    -6.8810     1.0970 ca         1 0UN       0.693600
     24 OBB         -4.0270    -7.6380     1.9270 os         1 0UN      -0.356400
     25 CBG         -2.8980    -7.0070     2.4710 ca         1 0UN       0.120100
     26 CAN         -3.0500    -6.0450     3.4700 ca         1 0UN      -0.164000
     27 CAJ         -1.6410    -7.4420     2.0380 ca         1 0UN      -0.135000
     28 CAH         -0.5110    -6.8830     2.6300 ca         1 0UN      -0.104000
     29 CAI         -0.6230    -5.9100     3.6200 ca         1 0UN      -0.131000
     30 CBF         -1.8950    -5.4810     4.0560 ca         1 0UN       0.062600
     31 NAY         -2.0420    -4.5210     5.0760 ns         1 0UN      -0.471100
     32 CBD         -1.2460    -3.3890     5.2110 c          1 0UN       0.663300
     33 OAE         -0.2720    -3.1740     4.4610 o          1 0UN      -0.606100
     34 CAQ         -1.6110    -2.4530     6.3100 ce         1 0UN      -0.245200
     35 CAP         -1.0920    -1.2260     6.3620 c2         1 0UN      -0.125000
     36 HAT         -0.2400     0.2570    -0.9370 h1         1 0UN       0.049200
     37 HATA        -0.4990     0.9660     0.7220 h1         1 0UN       0.049200
     38 HAR          2.1340     0.0840    -0.6570 h1         1 0UN       0.038950
     39 HARA         1.6290     1.7370    -0.0780 h1         1 0UN       0.038950
     40 HAB          4.0000     0.7170     2.5100 h1         1 0UN       0.032367
     41 HABA         4.2420     0.1920     0.7810 h1         1 0UN       0.032367
     42 HABB         3.6880     1.8890     1.1480 h1         1 0UN       0.032367
     43 HAS          2.3420    -0.9340     3.0390 h1         1 0UN       0.038950
     44 HASA         2.6010    -1.6730     1.3920 h1         1 0UN       0.038950
     45 HAU         -0.0310    -0.7720     2.7590 h1         1 0UN       0.049200
     46 HAUA         0.4720    -2.4340     2.2040 h1         1 0UN       0.049200
     47 HAO         -1.4400    -1.2300    -1.6680 ha         1 0UN       0.142000
     48 HAA         -3.7470    -2.0450    -4.2590 h1         1 0UN       0.046367
     49 HAAA        -2.1060    -2.3790    -3.4970 h1         1 0UN       0.046367
     50 HAAB        -2.9110    -0.7430    -3.2660 h1         1 0UN       0.046367
     51 HAK         -1.7000    -2.3100     2.5420 ha         1 0UN       0.149000
     52 HAL         -3.8590    -3.3610     2.1480 ha         1 0UN       0.148000
     53 HNAZ        -5.6660    -3.1510    -1.0020 hn         1 0UN       0.446800
     54 H6          -7.6590    -7.1840    -0.8060 h4         1 0UN       0.040100
     55 HAN         -4.0600    -5.7290     3.7680 ha         1 0UN       0.147000
     56 HAJ         -1.5600    -8.2030     1.2490 ha         1 0UN       0.152000
     57 HAH          0.4890    -7.2070     2.3030 ha         1 0UN       0.140000
     58 HAI          0.2860    -5.4550     4.0460 ha         1 0UN       0.160000
     59 HNAY        -2.8970    -4.5530     5.5840 hn         1 0UN       0.318500
     60 HAQ         -2.3110    -2.8210     7.0760 ha         1 0UN       0.136000
     61 HAP         -1.3420    -0.5200     7.1660 ha         1 0UN       0.132000
     62 HAPA        -0.3860    -0.8560     5.6020 ha         1 0UN       0.132000
@<TRIPOS>BOND
     1     1     2 1   
     2     1     7 1   
     3     1    36 1   
     4     1    37 1   
     5     2     3 1   
     6     2    38 1   
     7     2    39 1   
     8     3     4 1   
     9     3     5 1   
    10     4    40 1   
    11     4    41 1   
    12     4    42 1   
    13     5     6 1   
    14     5    43 1   
    15     5    44 1   
    16     6     7 1   
    17     6    45 1   
    18     6    46 1   
    19     7     8 1   
    20     8     9 ar  
    21     8    13 ar  
    22     9    10 ar  
    23     9    47 1   
    24    10    11 1   
    25    10    15 ar  
    26    11    12 1   
    27    12    48 1   
    28    12    49 1   
    29    12    50 1   
    30    13    14 ar  
    31    13    51 1   
    32    14    15 ar  
    33    14    52 1   
    34    15    16 1   
    35    16    17 1   
    36    16    53 1   
    37    17    18 ar  
    38    17    19 ar  
    39    18    23 ar  
    40    19    20 ar  
    41    20    21 ar  
    42    20    54 1   
    43    21    22 1   
    44    21    23 ar  
    45    23    24 1   
    46    24    25 1   
    47    25    26 ar  
    48    25    27 ar  
    49    26    30 ar  
    50    26    55 1   
    51    27    28 ar  
    52    27    56 1   
    53    28    29 ar  
    54    28    57 1   
    55    29    30 ar  
    56    29    58 1   
    57    30    31 1   
    58    31    32 1   
    59    31    59 1   
    60    32    33 2   
    61    32    34 1   
    62    34    35 2   
    63    34    60 1   
    64    35    61 1   
    65    35    62 1   
@<TRIPOS>SUBSTRUCTURE
     1 0UN         1 TEMP              0 ****  ****    0 ROOT
