@<TRIPOS>MOLECULE
0UN
   62    65     1     0     0
SMALL
bcc


@<TRIPOS>ATOM
      1 CAT          0.0000     0.0000     0.0000 c3         1 0UN       0.136800
      2 CAR          1.5300     0.0000     0.0000 c3         1 0UN       0.152800
      3 NBN          2.0170     0.0000     1.3870 n3         1 0UN      -0.549600
      4 CAB          3.4840     0.0760     1.4300 c3         1 0UN       0.189100
      5 CAS          1.5290    -1.1800     2.1130 c3         1 0UN       0.152800
      6 CAU         -0.0010    -1.1810     2.1130 c3         1 0UN       0.136800
      7 NBO         -0.4890    -1.1810     0.7270 nh         1 0UN      -0.365000
      8 CBH         -1.8850    -1.2520     0.6860 ca         1 0UN       0.056600
      9 CAO         -2.5450    -1.2650    -0.5360 ca         1 0UN      -0.227000
     10 CBK         -3.9270    -1.3360    -0.5750 ca         1 0UN       0.150100
     11 OBA         -4.5740    -1.3480    -1.7720 os         1 0UN      -0.315900
     12 CAA         -3.7650    -1.2840    -2.9470 c3         1 0UN       0.247700
     13 CAK         -2.6120    -1.3180     1.8670 ca         1 0UN      -0.191000
     14 CAL         -3.9920    -1.3900     1.8300 ca         1 0UN      -0.044000
     15 CBJ         -4.6530    -1.3960     0.6120 ca         1 0UN      -0.070400
     16 NAZ         -6.0550    -1.4690     0.5740 nu         1 0UN      -0.258300
     17 C2          -6.7340    -2.2110     1.5260 ca         1 0UN       0.735900
     18 N3          -8.0500    -2.3370     1.4260 nb         1 0UN      -0.757000
     19 N1          -6.0530    -2.7820     2.5080 nb         1 0UN      -0.718000
     20 C6          -6.6690    -3.5000     3.4350 ca         1 0UN       0.521200
     21 C5          -8.0430    -3.6510     3.3720 ca         1 0UN      -0.386200
     22 Cl5         -8.8890    -4.5830     4.5660 cl         1 0UN       0.018600
     23 C4          -8.7320    -3.0430     2.3220 ca         1 0UN       0.704600
     24 OBB        -10.0770    -3.1640     2.2210 os         1 0UN      -0.319400
     25 CBG        -10.6840    -2.6420     1.1230 ca         1 0UN       0.131100
     26 CAN        -10.4330    -3.1780    -0.1300 ca         1 0UN      -0.109000
     27 CAJ        -11.5610    -1.5730     1.2560 ca         1 0UN      -0.121000
     28 CAH        -12.1800    -1.0420     0.1410 ca         1 0UN      -0.070000
     29 CAI        -11.9280    -1.5700    -1.1100 ca         1 0UN      -0.139000
     30 CBF        -11.0550    -2.6430    -1.2490 ca         1 0UN      -0.072400
     31 NAY        -10.8040    -3.1820    -2.5150 ns         1 0UN      -0.030100
     32 CBD        -10.5900    -4.5050    -2.6530 c          1 0UN       0.570300
     33 OAE        -10.7190    -5.2450    -1.6970 o          1 0UN      -0.636100
     34 CAQ        -10.2030    -5.0530    -3.9620 ce         1 0UN      -0.250200
     35 CAP         -9.9920    -6.3600    -4.0980 c2         1 0UN      -0.049000
     36 HAT         -0.3600     0.8980     0.4880 h1         1 0UN       0.024450
     37 HATA        -0.3600    -0.0310    -1.0210 h1         1 0UN       0.024450
     38 HAR          1.8900     0.8860    -0.5080 h1         1 0UN       0.014950
     39 HARA         1.8900    -0.8860    -0.5080 h1         1 0UN       0.014950
     40 HAB          3.9050    -0.7950     0.9440 h1         1 0UN       0.001033
     41 HABA         3.8140     0.1080     2.4620 h1         1 0UN       0.001033
     42 HABB         3.8140     0.9710     0.9170 h1         1 0UN       0.001033
     43 HAS          1.8900    -2.0780     1.6250 h1         1 0UN       0.014950
     44 HASA         1.8890    -1.1490     3.1350 h1         1 0UN       0.014950
     45 HAU         -0.3620    -0.2950     2.6220 h1         1 0UN       0.024450
     46 HAUA        -0.3610    -2.0670     2.6220 h1         1 0UN       0.024450
     47 HAO         -1.9760    -1.2780    -1.4580 ha         1 0UN       0.132000
     48 HAA         -4.3990    -1.3190    -3.8250 h1         1 0UN      -0.001633
     49 HAAA        -3.2000    -0.3600    -2.9460 h1         1 0UN      -0.001633
     50 HAAB        -3.0820    -2.1250    -2.9620 h1         1 0UN      -0.001633
     51 HAK         -2.0960    -1.3130     2.8200 ha         1 0UN       0.126000
     52 HAL         -4.5560    -1.4390     2.7540 ha         1 0UN       0.145000
     53 HNAZ        -6.5640    -0.9450    -0.1090 hn         1 0UN       0.296800
     54 H6          -6.1030    -3.9630     4.2340 h4         1 0UN      -0.008900
     55 HAN         -9.7510    -4.0140    -0.2360 ha         1 0UN       0.149000
     56 HAJ        -11.7600    -1.1570     2.2360 ha         1 0UN       0.114000
     57 HAH        -12.8630    -0.2070     0.2480 ha         1 0UN       0.104000
     58 HAI        -12.4150    -1.1520    -1.9830 ha         1 0UN       0.105000
     59 HNAY       -10.7530    -2.5800    -3.3140 hn         1 0UN       0.167500
     60 HAQ        -10.0890    -4.3940    -4.8140 ha         1 0UN       0.104000
     61 HAP        -10.1060    -7.0190    -3.2460 ha         1 0UN       0.092500
     62 HAPA        -9.7070    -6.7650    -5.0620 ha         1 0UN       0.092500
@<TRIPOS>BOND
     1     1     2 1   
     2     1     7 1   
     3     1    36 1   
     4     1    37 1   
     5     2     3 1   
     6     2    38 1   
     7     2    39 1   
     8     3     4 1   
     9     3     5 1   
    10     4    40 1   
    11     4    41 1   
    12     4    42 1   
    13     5     6 1   
    14     5    43 1   
    15     5    44 1   
    16     6     7 1   
    17     6    45 1   
    18     6    46 1   
    19     7     8 1   
    20     8     9 ar  
    21     8    13 ar  
    22     9    10 ar  
    23     9    47 1   
    24    10    11 1   
    25    10    15 ar  
    26    11    12 1   
    27    12    48 1   
    28    12    49 1   
    29    12    50 1   
    30    13    14 ar  
    31    13    51 1   
    32    14    15 ar  
    33    14    52 1   
    34    15    16 1   
    35    16    17 1   
    36    16    53 1   
    37    17    18 ar  
    38    17    19 ar  
    39    18    23 ar  
    40    19    20 ar  
    41    20    21 ar  
    42    20    54 1   
    43    21    22 1   
    44    21    23 ar  
    45    23    24 1   
    46    24    25 1   
    47    25    26 ar  
    48    25    27 ar  
    49    26    30 ar  
    50    26    55 1   
    51    27    28 ar  
    52    27    56 1   
    53    28    29 ar  
    54    28    57 1   
    55    29    30 ar  
    56    29    58 1   
    57    30    31 1   
    58    31    32 1   
    59    31    59 1   
    60    32    33 2   
    61    32    34 1   
    62    34    35 2   
    63    34    60 1   
    64    35    61 1   
    65    35    62 1   
@<TRIPOS>SUBSTRUCTURE
     1 0UN         1 TEMP              0 ****  ****    0 ROOT
