@<TRIPOS>MOLECULE
molecule
   62    65     1     0     0
SMALL
bcc


@<TRIPOS>ATOM
      1 CAT          0.0000     0.0000     0.0000 c3         1 0UN       0.166300
      2 CAR          1.5300     0.0000     0.0000 c3         1 0UN       0.160300
      3 NBN          2.0170     0.0000     1.3870 n3         1 0UN      -0.734600
      4 CAB          3.4840     0.0760     1.4300 c3         1 0UN       0.153100
      5 CAS          1.5290    -1.1800     2.1130 c3         1 0UN       0.160300
      6 CAU         -0.0010    -1.1810     2.1130 c3         1 0UN       0.166300
      7 NBO         -0.4890    -1.1810     0.7270 nh         1 0UN      -0.599000
      8 CBH         -1.8850    -1.2520     0.6860 ca         1 0UN       0.129600
      9 CAO         -2.5450    -1.2650    -0.5360 ca         1 0UN      -0.234000
     10 CBK         -3.9270    -1.3360    -0.5750 ca         1 0UN       0.134100
     11 OBA         -4.5740    -1.3480    -1.7720 os         1 0UN      -0.333900
     12 CAA         -3.7650    -1.2840    -2.9470 c3         1 0UN       0.130700
     13 CAK         -2.6120    -1.3180     1.8670 ca         1 0UN      -0.206000
     14 CAL         -3.9920    -1.3900     1.8300 ca         1 0UN      -0.067000
     15 CBJ         -4.6530    -1.3960     0.6120 ca         1 0UN       0.098600
     16 NAZ         -6.0550    -1.4690     0.5740 nu         1 0UN      -0.736300
     17 C2          -6.7340    -2.2110     1.5260 ca         1 0UN       0.971900
     18 N3          -8.0500    -2.3370     1.4260 nb         1 0UN      -0.851000
     19 N1          -6.0530    -2.7820     2.5080 nb         1 0UN      -0.810000
     20 C6          -6.6690    -3.5000     3.4350 ca         1 0UN       0.526200
     21 C5          -8.0430    -3.6510     3.3720 ca         1 0UN      -0.298200
     22 Cl5         -8.8890    -4.5830     4.5660 cl         1 0UN      -0.079400
     23 C4          -8.7320    -3.0430     2.3220 ca         1 0UN       0.737600
     24 OBB        -10.0770    -3.1640     2.2210 os         1 0UN      -0.330400
     25 CBG        -10.6840    -2.6420     1.1230 ca         1 0UN       0.121100
     26 CAN        -10.4330    -3.1780    -0.1300 ca         1 0UN      -0.123000
     27 CAJ        -11.5610    -1.5730     1.2560 ca         1 0UN      -0.140000
     28 CAH        -12.1800    -1.0420     0.1410 ca         1 0UN      -0.104000
     29 CAI        -11.9280    -1.5700    -1.1100 ca         1 0UN      -0.162000
     30 CBF        -11.0550    -2.6430    -1.2490 ca         1 0UN       0.068600
     31 NAY        -10.8040    -3.1820    -2.5150 ns         1 0UN      -0.474100
     32 CBD        -10.5900    -4.5050    -2.6530 c          1 0UN       0.663300
     33 OAE        -10.7190    -5.2450    -1.6970 o          1 0UN      -0.595100
     34 CAQ        -10.2030    -5.0530    -3.9620 ce         1 0UN      -0.256200
     35 CAP         -9.9920    -6.3600    -4.0980 c2         1 0UN      -0.122000
     36 HAT         -0.3600    -0.0310    -1.0210 h1         1 0UN       0.050200
     37 HATA        -0.3600     0.8980     0.4880 h1         1 0UN       0.050200
     38 HAR          1.8900    -0.8860    -0.5080 h1         1 0UN       0.042700
     39 HARA         1.8900     0.8860    -0.5080 h1         1 0UN       0.042700
     40 HAB          3.8140     0.9710     0.9180 h1         1 0UN       0.033033
     41 HABA         3.8140     0.1080     2.4620 h1         1 0UN       0.033033
     42 HABB         3.9050    -0.7950     0.9430 h1         1 0UN       0.033033
     43 HAS          1.8890    -1.1490     3.1350 h1         1 0UN       0.042700
     44 HASA         1.8900    -2.0780     1.6250 h1         1 0UN       0.042700
     45 HAU         -0.3620    -0.2950     2.6220 h1         1 0UN       0.050200
     46 HAUA        -0.3610    -2.0670     2.6220 h1         1 0UN       0.050200
     47 HAO         -1.9760    -1.2780    -1.4580 ha         1 0UN       0.144000
     48 HAA         -4.3990    -1.3190    -3.8250 h1         1 0UN       0.041700
     49 HAAA        -3.2000    -0.3600    -2.9460 h1         1 0UN       0.041700
     50 HAAB        -3.0820    -2.1250    -2.9620 h1         1 0UN       0.041700
     51 HAK         -2.0960    -1.3130     2.8200 ha         1 0UN       0.141000
     52 HAL         -4.5560    -1.4390     2.7540 ha         1 0UN       0.171000
     53 HNAZ        -6.5640    -0.9450    -0.1090 hn         1 0UN       0.474800
     54 H6          -6.1030    -3.9630     4.2340 h4         1 0UN       0.044100
     55 HAN         -9.7510    -4.0140    -0.2360 ha         1 0UN       0.172000
     56 HAJ        -11.7600    -1.1570     2.2360 ha         1 0UN       0.143000
     57 HAH        -12.8630    -0.2070     0.2480 ha         1 0UN       0.137000
     58 HAI        -12.4150    -1.1520    -1.9830 ha         1 0UN       0.131000
     59 HNAY       -10.7530    -2.5800    -3.3140 hn         1 0UN       0.325500
     60 HAQ        -10.0890    -4.3940    -4.8140 ha         1 0UN       0.126000
     61 HAP         -9.7070    -6.7650    -5.0620 ha         1 0UN       0.131500
     62 HAPA       -10.1060    -7.0190    -3.2460 ha         1 0UN       0.131500
@<TRIPOS>BOND
     1     2     1 1
     2     2     3 1
     3     4     3 1
     4     5     3 1
     5     5     6 1
     6     6     7 1
     7     7     1 1
     8     8     7 1
     9     8     9 ar
    10    10     9 ar
    11    10    11 1
    12    12    11 1
    13    13     8 ar
    14    14    13 ar
    15    14    15 ar
    16    15    10 ar
    17    16    15 1
    18    17    16 1
    19    18    17 ar
    20    19    17 ar
    21    20    19 ar
    22    21    20 ar
    23    21    23 ar
    24    22    21 1
    25    23    18 ar
    26    24    23 1
    27    24    25 1
    28    25    26 ar
    29    26    30 ar
    30    27    25 ar
    31    27    28 ar
    32    28    29 ar
    33    29    30 ar
    34    30    31 1
    35    31    32 1
    36    32    34 1
    37    33    32 2
    38    34    35 2
    39     1    36 1
    40     1    37 1
    41     2    38 1
    42     2    39 1
    43     4    40 1
    44     4    41 1
    45     4    42 1
    46     5    43 1
    47     5    44 1
    48     6    45 1
    49     6    46 1
    50     9    47 1
    51    12    48 1
    52    12    49 1
    53    12    50 1
    54    13    51 1
    55    14    52 1
    56    16    53 1
    57    20    54 1
    58    26    55 1
    59    27    56 1
    60    28    57 1
    61    29    58 1
    62    31    59 1
    63    34    60 1
    64    35    61 1
    65    35    62 1
@<TRIPOS>SUBSTRUCTURE
     1 0UN         1 TEMP              0 ****  ****    0 ROOT
