@<TRIPOS>MOLECULE
0UP
   65    68     1     0     0
SMALL
bcc


@<TRIPOS>ATOM
      1 C1           0.3430    -0.0010    -0.3230 ca         1 0UP      -0.095000
      2 C2           0.4380    -4.6460     1.3040 ca         1 0UP      -0.087000
      3 C3           1.7190     0.1500    -0.1770 ca         1 0UP      -0.138000
      4 C4          -0.8860    -4.5180     0.8950 ca         1 0UP      -0.206000
      5 C5          -0.4910    -0.0850     0.7870 ca         1 0UP      -0.154000
      6 C6           1.2030    -4.0280    -0.9020 ca         1 0UP      -0.111000
      7 C7           1.4600     0.1410     2.2420 ca         1 0UP      -0.159000
      8 C8           1.4890    -4.4040     0.4130 ca         1 0UP      -0.143300
      9 C9           2.2960     0.2270     1.1100 ca         1 0UP       0.160600
     10 C10         -1.1760    -4.1420    -0.4240 ca         1 0UP       0.116100
     11 C11         -0.1210    -3.8820    -1.3270 ca         1 0UP       0.071100
     12 C12          0.0740    -0.0150     2.0720 ca         1 0UP       0.123900
     13 C13          4.9550    -1.4700     0.2570 c3         1 0UP      -0.085400
     14 C14          4.3160    -1.5540     2.6710 c3         1 0UP      -0.077400
     15 C15          6.0020     0.1370     1.8960 c3         1 0UP       0.194800
     16 C16          3.9010    -2.5410     0.0060 c3         1 0UP       0.166800
     17 C17          3.3090    -2.6710     2.3430 c3         1 0UP       0.181500
     18 C18          4.6500    -0.6140     1.5020 c3         1 0UP       0.251200
     19 C19          3.1850    -3.5430     3.5940 c3         1 0UP      -0.095100
     20 C20         -1.5590    -5.1700    -3.7320 c3         1 0UP      -0.107100
     21 C21         -0.0410    -3.5540    -4.9110 c3         1 0UP      -0.107100
     22 C24         -0.2840    -4.3560    -3.6460 c3         1 0UP       0.143100
     23 N25          3.6780     0.4510     1.2570 nh         1 0UP      -0.690900
     24 N26          5.8560     1.5420     1.6320 n3         1 0UP      -0.820500
     25 N27          3.7140    -3.4220     1.1500 n3         1 0UP      -0.730600
     26 O30         -2.4610    -4.0220    -0.8950 oh         1 0UP      -0.481100
     27 O31         -0.3940    -3.3770    -2.5860 os         1 0UP      -0.334900
     28 F32         -0.7250    -0.0990     3.1650 f          1 0UP      -0.141900
     29 S33          4.3370     1.9770     1.1820 s6         1 0UP       1.594800
     30 H1          -0.0920    -0.0600    -1.3340 ha         1 0UP       0.152000
     31 H2           0.6540    -4.9470     2.3410 ha         1 0UP       0.135000
     32 H3           2.3550     0.2260    -1.0740 ha         1 0UP       0.154000
     33 H4          -1.7050    -4.7100     1.6020 ha         1 0UP       0.137000
     34 H5          -1.5780    -0.2030     0.6710 ha         1 0UP       0.152000
     35 H6           2.0180    -3.8350    -1.6160 ha         1 0UP       0.144000
     36 H7           1.8720     0.2090     3.2600 ha         1 0UP       0.157000
     37 H8           5.9480    -1.9680     0.4130 hc         1 0UP       0.059200
     38 H9           5.0320    -0.8260    -0.6570 hc         1 0UP       0.059200
     39 H10          3.9080    -0.9640     3.5320 hc         1 0UP       0.057700
     40 H11          5.2760    -2.0340     3.0020 hc         1 0UP       0.057700
     41 H12          6.2200    -0.0290     2.9880 h1         1 0UP       0.055700
     42 H13          6.8580    -0.2890     1.3050 h1         1 0UP       0.055700
     43 H14          4.2420    -3.1730    -0.8630 h1         1 0UP       0.042200
     44 H15          2.9330    -2.0380    -0.2970 h1         1 0UP       0.042200
     45 H16          2.2990    -2.1820     2.1670 h1         1 0UP       0.040700
     46 H17          2.2980    -4.2170     3.5220 hc         1 0UP       0.040033
     47 H18          4.0990    -4.1650     3.7460 hc         1 0UP       0.040033
     48 H19          3.0490    -2.8850     4.4860 hc         1 0UP       0.040033
     49 H20         -1.8060    -5.5970    -2.7300 hc         1 0UP       0.046367
     50 H21         -1.4340    -5.9970    -4.4690 hc         1 0UP       0.046367
     51 H22         -2.4110    -4.5220    -4.0500 hc         1 0UP       0.046367
     52 H23         -0.0020    -4.2470    -5.7840 hc         1 0UP       0.046367
     53 H24          0.9220    -2.9970    -4.8370 hc         1 0UP       0.046367
     54 H25         -0.8650    -2.8160    -5.0650 hc         1 0UP       0.046367
     55 H26          7.3590     2.3520     2.8580 h1         1 0UP       0.040033
     56 H27          6.6880     3.4490     1.5590 h1         1 0UP       0.040033
     57 H28          7.8200     2.0840     1.1150 h1         1 0UP       0.040033
     58 H29          3.4580    -5.1430     0.0200 h1         1 0UP       0.057700
     59 H30          2.9370    -5.2590     1.7570 h1         1 0UP       0.057700
     60 H31          0.5940    -5.0280    -3.4350 h1         1 0UP       0.039700
     61 H33         -3.0620    -4.1380    -0.1430 ho         1 0UP       0.417000
     62 O28          4.3220     2.4740    -0.1320 o          1 0UP      -0.649800
     63 C22          6.9840     2.3920     1.7990 c3         1 0UP       0.242100
     64 C23          2.9160    -4.5940     0.8470 c3         1 0UP       0.223100
     65 O29          3.7540     2.8410     2.1230 o          1 0UP      -0.649800
@<TRIPOS>BOND
     1     1     3 ar  
     2     1     5 ar  
     3     1    30 1   
     4     2     4 ar  
     5     2     8 ar  
     6     2    31 1   
     7     3     9 ar  
     8     3    32 1   
     9     4    10 ar  
    10     4    33 1   
    11     5    12 ar  
    12     5    34 1   
    13     6     8 ar  
    14     6    11 ar  
    15     6    35 1   
    16     7     9 ar  
    17     7    12 ar  
    18     7    36 1   
    19     8    64 1   
    20     9    23 1   
    21    10    11 ar  
    22    10    26 1   
    23    11    27 1   
    24    12    28 1   
    25    13    16 1   
    26    13    18 1   
    27    13    37 1   
    28    13    38 1   
    29    14    17 1   
    30    14    18 1   
    31    14    39 1   
    32    14    40 1   
    33    15    18 1   
    34    15    24 1   
    35    15    41 1   
    36    15    42 1   
    37    16    25 1   
    38    16    43 1   
    39    16    44 1   
    40    17    19 1   
    41    17    25 1   
    42    17    45 1   
    43    18    23 1   
    44    19    46 1   
    45    19    47 1   
    46    19    48 1   
    47    20    22 1   
    48    20    49 1   
    49    20    50 1   
    50    20    51 1   
    51    21    22 1   
    52    21    52 1   
    53    21    53 1   
    54    21    54 1   
    55    22    27 1   
    56    22    60 1   
    57    23    29 1   
    58    24    29 1   
    59    24    63 1   
    60    25    64 1   
    61    26    61 1   
    62    29    62 2   
    63    29    65 2   
    64    55    63 1   
    65    56    63 1   
    66    57    63 1   
    67    58    64 1   
    68    59    64 1   
@<TRIPOS>SUBSTRUCTURE
     1 0UP         1 TEMP              0 ****  ****    0 ROOT
