@<TRIPOS>MOLECULE
molecule
   65    68     1     0     0
SMALL
bcc


@<TRIPOS>ATOM
      1 C1           0.0000     0.0000     0.0000 ca         1 0UP      -0.111000
      2 C2           0.5260     4.6300     3.4580 ca         1 0UP      -0.152000
      3 C3           1.3800     0.0000     0.0000 ca         1 0UP      -0.126000
      4 C4           0.4310     5.6100     4.4280 ca         1 0UP      -0.134000
      5 C5          -0.6930    -0.0010     1.1960 ca         1 0UP      -0.159000
      6 C6           1.2780     6.2600     1.8710 ca         1 0UP      -0.192000
      7 C7           1.3770    -0.0010     2.4040 ca         1 0UP      -0.160000
      8 C8           0.9490     4.9540     2.1830 ca         1 0UP      -0.052300
      9 C9           2.0750     0.0000     1.2040 ca         1 0UP       0.192600
     10 C10          0.7550     6.9220     4.1210 ca         1 0UP       0.077100
     11 C11          1.1740     7.2490     2.8350 ca         1 0UP       0.128100
     12 C12         -0.0060    -0.0060     2.3980 ca         1 0UP       0.125900
     13 C13          4.0480     2.0230     2.4530 c3         1 0UP      -0.074400
     14 C14          4.1000     2.0070    -0.0440 c3         1 0UP      -0.069400
     15 C15          5.8260     0.7430     1.2490 c3         1 0UP       0.194800
     16 C16          2.5960     2.5000     2.3830 c3         1 0UP       0.127800
     17 C17          2.6460     2.4840    -0.0410 c3         1 0UP       0.137500
     18 C18          4.3590     1.1720     1.2160 c3         1 0UP       0.203200
     19 C19          2.3840     3.3320    -1.2860 c3         1 0UP      -0.091100
     20 C20          0.9210     8.9220     0.2160 c3         1 0UP      -0.105100
     21 C21          2.8820    10.0590     1.2660 c3         1 0UP      -0.105100
     22 C24          2.0520     8.7740     1.2350 c3         1 0UP       0.134100
     23 N25          3.4720    -0.0010     1.2060 nh         1 0UP      -0.692900
     24 N26          5.9430    -0.6460     0.7720 n3         1 0UP      -0.827500
     25 N27          2.3960     3.2900     1.1610 n3         1 0UP      -0.720600
     26 O30          0.6600     7.8890     5.0740 oh         1 0UP      -0.503100
     27 O31          1.4980     8.5340     2.5300 os         1 0UP      -0.312900
     28 F32         -0.6870    -0.0060     3.5650 f          1 0UP      -0.134900
     29 S33          4.4790    -1.3310     1.1980 s6         1 0UP       1.532800
     30 H1          -0.5410     0.0020    -0.9390 ha         1 0UP       0.144000
     31 H2           0.2710     3.6050     3.6990 ha         1 0UP       0.134000
     32 H3           1.9220     0.0010    -0.9380 ha         1 0UP       0.154000
     33 H4           0.1020     5.3540     5.4280 ha         1 0UP       0.142000
     34 H5          -1.7770    -0.0030     1.1930 ha         1 0UP       0.150000
     35 H6           1.6070     6.5110     0.8700 ha         1 0UP       0.144000
     36 H7           1.9150    -0.0030     3.3450 ha         1 0UP       0.165000
     37 H8           4.1890     1.4270     3.3460 hc         1 0UP       0.061700
     38 H9           4.7090     2.8820     2.4760 hc         1 0UP       0.061700
     39 H10          4.7610     2.8650    -0.0510 hc         1 0UP       0.057700
     40 H11          4.2780     1.3990    -0.9230 hc         1 0UP       0.057700
     41 H12          6.4050     1.3950     0.6060 h1         1 0UP       0.069700
     42 H13          6.1960     0.8070     2.2650 h1         1 0UP       0.069700
     43 H14          2.3770     3.1140     3.2480 h1         1 0UP       0.059200
     44 H15          1.9360     1.6410     2.3670 h1         1 0UP       0.059200
     45 H16          1.9860     1.6240    -0.0390 h1         1 0UP       0.059700
     46 H17          2.7760     4.3300    -1.1320 hc         1 0UP       0.040033
     47 H18          2.8730     2.8790    -2.1400 hc         1 0UP       0.040033
     48 H19          1.3170     3.3870    -1.4680 hc         1 0UP       0.040033
     49 H20          1.2220     8.4780    -0.7250 hc         1 0UP       0.046367
     50 H21          0.0350     8.4190     0.5840 hc         1 0UP       0.046367
     51 H22          0.7040     9.9720     0.0670 hc         1 0UP       0.046367
     52 H23          3.2500    10.2750     0.2700 hc         1 0UP       0.046367
     53 H24          2.2630    10.8800     1.6080 hc         1 0UP       0.046367
     54 H25          3.7190     9.9320     1.9410 hc         1 0UP       0.046367
     55 H26          7.1070    -2.3310     0.3380 h1         1 0UP       0.040033
     56 H27          7.9970    -0.8030     0.3990 h1         1 0UP       0.040033
     57 H28          6.9560    -1.1660    -0.9850 h1         1 0UP       0.040033
     58 H29          0.3140     3.1110     1.3250 h1         1 0UP       0.043200
     59 H30          0.8700     4.3140     0.1540 h1         1 0UP       0.043200
     60 H31          2.6850     7.9410     0.9540 h1         1 0UP       0.048700
     61 H33         -0.2480     8.0470     5.2710 ho         1 0UP       0.414000
     62 O28          4.5980    -1.7760     2.5420 o          1 0UP      -0.633800
     63 C22          7.0740    -1.2780     0.0860 c3         1 0UP       0.278100
     64 C23          1.0510     3.8800     1.1300 c3         1 0UP       0.205100
     65 O29          4.0710    -2.1610     0.1190 o          1 0UP      -0.633800
@<TRIPOS>BOND
     1    20    22 1   
     2    64     8 1   
     3    64    25 1   
     4    22    21 1   
     5    22    27 1   
     6     8     6 ar  
     7     8     2 ar  
     8     6    11 ar  
     9     2     4 ar  
    10    11    27 1   
    11    11    10 ar  
    12    25    16 1   
    13    25    17 1   
    14    19    17 1   
    15     4    10 ar  
    16    10    26 1   
    17    16    13 1   
    18    17    14 1   
    19    13    18 1   
    20    14    18 1   
    21    18    15 1   
    22    18    23 1   
    23    15    24 1   
    24     3     1 ar  
    25     3     9 ar  
    26     1     5 ar  
    27     9    23 1   
    28     9     7 ar  
    29    23    29 1   
    30     5    12 ar  
    31     7    12 ar  
    32    12    28 1   
    33    24    29 1   
    34    24    63 1   
    35    29    62 2   
    36    29    65 2   
    37     1    30 1   
    38     2    31 1   
    39     3    32 1   
    40     4    33 1   
    41     5    34 1   
    42     6    35 1   
    43     7    36 1   
    44    13    37 1   
    45    13    38 1   
    46    14    39 1   
    47    14    40 1   
    48    15    41 1   
    49    15    42 1   
    50    16    43 1   
    51    16    44 1   
    52    17    45 1   
    53    19    46 1   
    54    19    47 1   
    55    19    48 1   
    56    20    49 1   
    57    20    50 1   
    58    20    51 1   
    59    21    52 1   
    60    21    53 1   
    61    21    54 1   
    62    63    55 1   
    63    63    56 1   
    64    63    57 1   
    65    64    58 1   
    66    64    59 1   
    67    22    60 1   
    68    26    61 1   
@<TRIPOS>SUBSTRUCTURE
     1 0UP         1 TEMP              0 ****  ****    0 ROOT
