@<TRIPOS>MOLECULE
0UP
   65    68     1     0     0
SMALL
bcc


@<TRIPOS>ATOM
      1 C1           0.0000     0.0000     0.0000 ca         1 0UP      -0.074000
      2 C2           0.5260     4.6300     3.4580 ca         1 0UP      -0.126000
      3 C3           1.3800     0.0000     0.0000 ca         1 0UP      -0.112000
      4 C4           0.4310     5.6100     4.4280 ca         1 0UP      -0.115000
      5 C5          -0.6930    -0.0010     1.1960 ca         1 0UP      -0.129000
      6 C6           1.2780     6.2600     1.8710 ca         1 0UP      -0.181000
      7 C7           1.3770    -0.0010     2.4040 ca         1 0UP      -0.139000
      8 C8           0.9490     4.9540     2.1830 ca         1 0UP      -0.061300
      9 C9           2.0750     0.0000     1.2040 ca         1 0UP       0.135600
     10 C10          0.7550     6.9220     4.1210 ca         1 0UP       0.088100
     11 C11          1.1740     7.2490     2.8350 ca         1 0UP       0.128100
     12 C12         -0.0060    -0.0060     2.3980 ca         1 0UP       0.106900
     13 C13          4.0480     2.0230     2.4530 c3         1 0UP      -0.023400
     14 C14          4.1000     2.0070    -0.0440 c3         1 0UP      -0.025400
     15 C15          5.8260     0.7430     1.2490 c3         1 0UP       0.200800
     16 C16          2.5960     2.5000     2.3830 c3         1 0UP       0.059800
     17 C17          2.6460     2.4840    -0.0410 c3         1 0UP       0.051500
     18 C18          4.3590     1.1720     1.2160 c3         1 0UP       0.145200
     19 C19          2.3840     3.3320    -1.2860 c3         1 0UP       0.001900
     20 C20          0.9210     8.9220     0.2160 c3         1 0UP      -0.016100
     21 C21          2.8820    10.0590     1.2660 c3         1 0UP      -0.016100
     22 C24          2.0520     8.7740     1.2350 c3         1 0UP       0.159100
     23 N25          3.4720    -0.0010     1.2060 nh         1 0UP      -0.375900
     24 N26          5.9430    -0.6460     0.7720 n3         1 0UP      -0.539500
     25 N27          2.3960     3.2900     1.1610 n3         1 0UP      -0.518600
     26 O30          0.6600     7.8890     5.0740 oh         1 0UP      -0.482100
     27 O31          1.4980     8.5340     2.5300 os         1 0UP      -0.285900
     28 F32         -0.6870    -0.0060     3.5650 f          1 0UP      -0.123900
     29 S33          4.4790    -1.3310     1.1980 s6         1 0UP       1.118800
     30 H1          -0.5410     0.0020    -0.9390 ha         1 0UP       0.112000
     31 H2           0.2710     3.6050     3.6990 ha         1 0UP       0.111000
     32 H3           1.9220     0.0010    -0.9380 ha         1 0UP       0.131000
     33 H4           0.1020     5.3540     5.4280 ha         1 0UP       0.113000
     34 H5          -1.7770    -0.0030     1.1930 ha         1 0UP       0.122000
     35 H6           1.6070     6.5110     0.8700 ha         1 0UP       0.131000
     36 H7           1.9150    -0.0030     3.3450 ha         1 0UP       0.144000
     37 H8           4.1890     1.4270     3.3460 hc         1 0UP       0.032700
     38 H9           4.7090     2.8820     2.4760 hc         1 0UP       0.032700
     39 H10          4.7610     2.8650    -0.0510 hc         1 0UP       0.030200
     40 H11          4.2780     1.3990    -0.9230 hc         1 0UP       0.030200
     41 H12          6.4050     1.3950     0.6060 h1         1 0UP       0.031200
     42 H13          6.1960     0.8070     2.2650 h1         1 0UP       0.031200
     43 H14          2.3770     3.1140     3.2480 h1         1 0UP       0.049200
     44 H15          1.9360     1.6410     2.3670 h1         1 0UP       0.049200
     45 H16          1.9860     1.6240    -0.0390 h1         1 0UP       0.065700
     46 H17          2.7760     4.3300    -1.1320 hc         1 0UP       0.008700
     47 H18          2.8730     2.8790    -2.1400 hc         1 0UP       0.008700
     48 H19          1.3170     3.3870    -1.4680 hc         1 0UP       0.008700
     49 H20          1.2220     8.4780    -0.7250 hc         1 0UP       0.012867
     50 H21          0.0350     8.4190     0.5840 hc         1 0UP       0.012867
     51 H22          0.7040     9.9720     0.0670 hc         1 0UP       0.012867
     52 H23          3.2500    10.2750     0.2700 hc         1 0UP       0.012867
     53 H24          2.2630    10.8800     1.6080 hc         1 0UP       0.012867
     54 H25          3.7190     9.9320     1.9410 hc         1 0UP       0.012867
     55 H26          7.1070    -2.3310     0.3380 h1         1 0UP      -0.002967
     56 H27          7.9970    -0.8030     0.3990 h1         1 0UP      -0.002967
     57 H28          6.9560    -1.1660    -0.9850 h1         1 0UP      -0.002967
     58 H29          0.3140     3.1110     1.3250 h1         1 0UP       0.018700
     59 H30          0.8700     4.3140     0.1540 h1         1 0UP       0.018700
     60 H31          2.6850     7.9410     0.9540 h1         1 0UP       0.021700
     61 H33         -0.2480     8.0470     5.2710 ho         1 0UP       0.397000
     62 O28          4.5980    -1.7760     2.5420 o          1 0UP      -0.574800
     63 C22          7.0740    -1.2780     0.0860 c3         1 0UP       0.338100
     64 C23          1.0510     3.8800     1.1300 c3         1 0UP       0.193100
     65 O29          4.0710    -2.1610     0.1190 o          1 0UP      -0.574800
@<TRIPOS>BOND
     1     1     3 ar  
     2     1     5 ar  
     3     1    30 1   
     4     2     4 ar  
     5     2     8 ar  
     6     2    31 1   
     7     3     9 ar  
     8     3    32 1   
     9     4    10 ar  
    10     4    33 1   
    11     5    12 ar  
    12     5    34 1   
    13     6     8 ar  
    14     6    11 ar  
    15     6    35 1   
    16     7     9 ar  
    17     7    12 ar  
    18     7    36 1   
    19     8    64 1   
    20     9    23 1   
    21    10    11 ar  
    22    10    26 1   
    23    11    27 1   
    24    12    28 1   
    25    13    16 1   
    26    13    18 1   
    27    13    37 1   
    28    13    38 1   
    29    14    17 1   
    30    14    18 1   
    31    14    39 1   
    32    14    40 1   
    33    15    18 1   
    34    15    24 1   
    35    15    41 1   
    36    15    42 1   
    37    16    25 1   
    38    16    43 1   
    39    16    44 1   
    40    17    19 1   
    41    17    25 1   
    42    17    45 1   
    43    18    23 1   
    44    19    46 1   
    45    19    47 1   
    46    19    48 1   
    47    20    22 1   
    48    20    49 1   
    49    20    50 1   
    50    20    51 1   
    51    21    22 1   
    52    21    52 1   
    53    21    53 1   
    54    21    54 1   
    55    22    27 1   
    56    22    60 1   
    57    23    29 1   
    58    24    29 1   
    59    24    63 1   
    60    25    64 1   
    61    26    61 1   
    62    29    62 2   
    63    29    65 2   
    64    55    63 1   
    65    56    63 1   
    66    57    63 1   
    67    58    64 1   
    68    59    64 1   
@<TRIPOS>SUBSTRUCTURE
     1 0UP         1 TEMP              0 ****  ****    0 ROOT
