@<TRIPOS>MOLECULE
0UQ
   64    67     1     0     0
SMALL
bcc


@<TRIPOS>ATOM
      1 C1           0.0000     0.0000     0.0000 c3         1 0UQ      -0.023400
      2 C2           1.5300     0.0000     0.0000 c3         1 0UQ       0.056800
      3 N1           2.0210     0.0000     1.3840 n3         1 0UQ      -0.517600
      4 C3           1.5880    -1.2050     2.1020 c3         1 0UQ       0.052500
      5 C4           0.0600    -1.2430     2.1650 c3         1 0UQ      -0.026400
      6 C5          -0.5040    -1.2450     0.7400 c3         1 0UQ       0.146200
      7 C6           2.1570    -1.1850     3.5230 c3         1 0UQ       0.000900
      8 N2          -0.0250    -2.4460     0.0380 nh         1 0UQ      -0.375900
      9 C7          -2.0310    -1.2220     0.7960 c3         1 0UQ       0.200800
     10 C8           1.3010    -2.7950    -0.2280 ca         1 0UQ       0.134600
     11 C9           1.9100    -2.3700    -1.4030 ca         1 0UQ      -0.116000
     12 C10          3.2210    -2.7150    -1.6630 ca         1 0UQ      -0.076000
     13 C11          3.9290    -3.4840    -0.7590 ca         1 0UQ      -0.128000
     14 C12          3.3260    -3.9100     0.4130 ca         1 0UQ       0.107900
     15 C13          2.0140    -3.5620     0.6830 ca         1 0UQ      -0.133000
     16 F1           4.0210    -4.6600     1.2960 f          1 0UQ      -0.123900
     17 C14          3.4830     0.1410     1.4250 c3         1 0UQ       0.193100
     18 C15          3.8730     1.4880     0.8710 ca         1 0UQ      -0.046300
     19 C16          3.9770     2.5760     1.7140 ca         1 0UQ      -0.125000
     20 C17          4.3360     3.8160     1.2050 ca         1 0UQ       0.156100
     21 C18          4.5920     3.9580    -0.1520 ca         1 0UQ      -0.219000
     22 C19          4.4880     2.8650    -0.9900 ca         1 0UQ      -0.055000
     23 C20          4.1340     1.6300    -0.4790 ca         1 0UQ      -0.152000
     24 O1           4.4390     4.8880     2.0330 os         1 0UQ      -0.299900
     25 C21          4.8860     6.1150     1.4520 c3         1 0UQ       0.161100
     26 C22          4.4270     7.2880     2.3200 c3         1 0UQ      -0.017100
     27 C23          6.4140     6.1120     1.3660 c3         1 0UQ      -0.017100
     28 S1          -1.3950    -3.3060    -0.3750 s6         1 0UQ       1.118800
     29 N3          -2.5530    -2.5850     0.5930 n3         1 0UQ      -0.538500
     30 O2          -1.2160    -4.6340     0.0970 o          1 0UQ      -0.575300
     31 C24         -3.7910    -3.1690     1.1130 c3         1 0UQ       0.338100
     32 O3          -1.7080    -2.9790    -1.7210 o          1 0UQ      -0.575300
     33 H1          -0.3610     0.8890     0.5030 hc         1 0UQ       0.031200
     34 H2          -0.3610    -0.0160    -1.0210 hc         1 0UQ       0.031200
     35 H3           1.8890     0.8860    -0.5090 h1         1 0UQ       0.049700
     36 H4           1.8900    -0.8860    -0.5090 h1         1 0UQ       0.049700
     37 H6           1.9470    -2.0820     1.5780 h1         1 0UQ       0.064700
     38 H7          -0.2580    -2.1410     2.6800 hc         1 0UQ       0.031200
     39 H8          -0.3010    -0.3690     2.6940 hc         1 0UQ       0.031200
     40 H9           1.5930    -1.8670     4.1470 hc         1 0UQ       0.010033
     41 H10          3.1960    -1.4920     3.5000 hc         1 0UQ       0.010033
     42 H11          2.0860    -0.1820     3.9260 hc         1 0UQ       0.010033
     43 H12         -2.4100    -0.5720     0.0160 h1         1 0UQ       0.030700
     44 H13         -2.3500    -0.8550     1.7640 h1         1 0UQ       0.030700
     45 H14          1.3570    -1.7680    -2.1130 ha         1 0UQ       0.132000
     46 H15          3.6960    -2.3830    -2.5790 ha         1 0UQ       0.112000
     47 H16          4.9570    -3.7550    -0.9670 ha         1 0UQ       0.122000
     48 H17          1.5410    -3.8950     1.5990 ha         1 0UQ       0.143000
     49 H18          3.8250     0.0580     2.4490 h1         1 0UQ       0.019700
     50 H19          3.9380    -0.6410     0.8280 h1         1 0UQ       0.019700
     51 H20          3.7760     2.4620     2.7730 ha         1 0UQ       0.121000
     52 H21          4.8710     4.9250    -0.5530 ha         1 0UQ       0.125000
     53 H22          4.6890     2.9740    -2.0490 ha         1 0UQ       0.099000
     54 H23          4.0530     0.7750    -1.1390 ha         1 0UQ       0.107000
     55 H24          4.4690     6.2170     0.4580 h1         1 0UQ       0.020700
     56 H25          4.7690     8.2180     1.8820 hc         1 0UQ       0.013367
     57 H26          3.3450     7.2930     2.3780 hc         1 0UQ       0.013367
     58 H27          4.8410     7.1840     3.3160 hc         1 0UQ       0.013367
     59 H28          6.7180     5.9170     0.3450 hc         1 0UQ       0.013367
     60 H29          6.8100     5.3400     2.0150 hc         1 0UQ       0.013367
     61 H30          6.7950     7.0770     1.6780 hc         1 0UQ       0.013367
     62 H31         -4.5210    -2.3840     1.2740 h1         1 0UQ      -0.002967
     63 H32         -4.1810    -3.8840     0.4000 h1         1 0UQ      -0.002967
     64 H33         -3.5870    -3.6700     2.0520 h1         1 0UQ      -0.002967
@<TRIPOS>BOND
     1     1     2 1   
     2     1     6 1   
     3     1    33 1   
     4     1    34 1   
     5     2     3 1   
     6     2    35 1   
     7     2    36 1   
     8     3     4 1   
     9     3    17 1   
    10     4     5 1   
    11     4     7 1   
    12     4    37 1   
    13     5     6 1   
    14     5    38 1   
    15     5    39 1   
    16     6     8 1   
    17     6     9 1   
    18     7    40 1   
    19     7    41 1   
    20     7    42 1   
    21     8    10 1   
    22     8    28 1   
    23     9    29 1   
    24     9    43 1   
    25     9    44 1   
    26    10    11 ar  
    27    10    15 ar  
    28    11    12 ar  
    29    11    45 1   
    30    12    13 ar  
    31    12    46 1   
    32    13    14 ar  
    33    13    47 1   
    34    14    15 ar  
    35    14    16 1   
    36    15    48 1   
    37    17    18 1   
    38    17    49 1   
    39    17    50 1   
    40    18    19 ar  
    41    18    23 ar  
    42    19    20 ar  
    43    19    51 1   
    44    20    21 ar  
    45    20    24 1   
    46    21    22 ar  
    47    21    52 1   
    48    22    23 ar  
    49    22    53 1   
    50    23    54 1   
    51    24    25 1   
    52    25    26 1   
    53    25    27 1   
    54    25    55 1   
    55    26    56 1   
    56    26    57 1   
    57    26    58 1   
    58    27    59 1   
    59    27    60 1   
    60    27    61 1   
    61    28    29 1   
    62    28    30 2   
    63    28    32 2   
    64    29    31 1   
    65    31    62 1   
    66    31    63 1   
    67    31    64 1   
@<TRIPOS>SUBSTRUCTURE
     1 0UQ         1 TEMP              0 ****  ****    0 ROOT
