@<TRIPOS>MOLECULE
0UQ
   64    67     1     0     0
SMALL
bcc


@<TRIPOS>ATOM
      1 C1           0.1390     0.0110     0.0290 c3         1 0UQ      -0.086400
      2 C2           1.6460    -0.2000     0.1050 c3         1 0UQ       0.167800
      3 N1           2.1460    -0.1660     1.4730 n3         1 0UQ      -0.729600
      4 C3           1.5100    -1.1960     2.3010 c3         1 0UQ       0.181500
      5 C4          -0.0240    -1.0710     2.2730 c3         1 0UQ      -0.076400
      6 C5          -0.6460    -1.0140     0.8700 c3         1 0UQ       0.249200
      7 C6           1.9360    -1.1380     3.7710 c3         1 0UQ      -0.095100
      8 N2          -0.8180    -2.3040     0.2020 nh         1 0UQ      -0.689900
      9 C7          -2.1240    -0.4400     1.0500 c3         1 0UQ       0.194800
     10 C8           0.1900    -3.2850     0.1250 ca         1 0UQ       0.164600
     11 C9           0.9480    -3.4330    -1.0580 ca         1 0UQ      -0.140000
     12 C10          1.8940    -4.4500    -1.1630 ca         1 0UQ      -0.098000
     13 C11          2.1200    -5.3310    -0.1120 ca         1 0UQ      -0.153000
     14 C12          1.3750    -5.1880     1.0720 ca         1 0UQ       0.127900
     15 C13          0.4100    -4.1750     1.1960 ca         1 0UQ      -0.158000
     16 F1           1.5840    -6.0380     2.1070 f          1 0UQ      -0.139900
     17 C14          3.5930    -0.1070     1.5480 c3         1 0UQ       0.216100
     18 C15          4.3920    -1.2330     0.9500 ca         1 0UQ      -0.086300
     19 C16          4.6480    -1.2410    -0.4270 ca         1 0UQ      -0.199000
     20 C17          5.4330    -2.2590    -0.9780 ca         1 0UQ       0.131100
     21 C18          5.9710    -3.2720    -0.1570 ca         1 0UQ      -0.157000
     22 C19          5.7060    -3.2490     1.2060 ca         1 0UQ      -0.099000
     23 C20          4.9210    -2.2370     1.7620 ca         1 0UQ      -0.155000
     24 O1           5.7350    -2.4020    -2.3160 os         1 0UQ      -0.334900
     25 C21          5.3590    -1.3340    -3.2040 c3         1 0UQ       0.141100
     26 C22          6.2750    -0.1400    -3.0260 c3         1 0UQ      -0.111100
     27 C23          5.4860    -1.9260    -4.5980 c3         1 0UQ      -0.111100
     28 S1          -2.3350    -2.5390    -0.4390 s6         1 0UQ       1.593800
     29 N3          -3.0300    -1.2190     0.2510 n3         1 0UQ      -0.820500
     30 O2          -2.9210    -3.7270     0.0260 o          1 0UQ      -0.649800
     31 C24         -4.3930    -0.8190     0.1710 c3         1 0UQ       0.242100
     32 O3          -2.3150    -2.4260    -1.8400 o          1 0UQ      -0.649800
     33 H1          -0.1050     1.0360     0.4140 hc         1 0UQ       0.059200
     34 H2          -0.1730    -0.0360    -1.0460 hc         1 0UQ       0.059200
     35 H3           1.9070    -1.1710    -0.4120 h1         1 0UQ       0.040700
     36 H4           2.1470     0.6340    -0.4640 h1         1 0UQ       0.040700
     37 H6           1.7790    -2.2280     1.9090 h1         1 0UQ       0.040700
     38 H7          -0.4520    -1.9330     2.8480 hc         1 0UQ       0.057200
     39 H8          -0.3090    -0.1240     2.8050 hc         1 0UQ       0.057200
     40 H9           1.2830    -1.8210     4.3670 hc         1 0UQ       0.040700
     41 H10          1.8400    -0.1050     4.1800 hc         1 0UQ       0.040700
     42 H11          2.9920    -1.4780     3.8910 hc         1 0UQ       0.040700
     43 H12         -2.1510     0.6400     0.7400 h1         1 0UQ       0.056200
     44 H13         -2.4190    -0.4970     2.1350 h1         1 0UQ       0.056200
     45 H14          0.7810    -2.7550    -1.9100 ha         1 0UQ       0.152000
     46 H15          2.4730    -4.5560    -2.0940 ha         1 0UQ       0.146000
     47 H16          2.8690    -6.1330    -0.1940 ha         1 0UQ       0.153000
     48 H17         -0.1710    -4.0980     2.1280 ha         1 0UQ       0.157000
     49 H18          3.8990     0.8490     1.0290 h1         1 0UQ       0.059200
     50 H19          3.8720    -0.0000     2.6360 h1         1 0UQ       0.059200
     51 H20          4.2320    -0.4400    -1.0530 ha         1 0UQ       0.137000
     52 H21          6.5890    -4.0610    -0.6080 ha         1 0UQ       0.148000
     53 H22          6.1210    -4.0360     1.8540 ha         1 0UQ       0.135000
     54 H23          4.7260    -2.2320     2.8450 ha         1 0UQ       0.133000
     55 H24          4.2880    -1.0460    -3.0120 h1         1 0UQ       0.044700
     56 H25          7.3320    -0.4280    -3.2390 hc         1 0UQ       0.048700
     57 H26          5.9740     0.6740    -3.7280 hc         1 0UQ       0.048700
     58 H27          6.2190     0.2430    -1.9790 hc         1 0UQ       0.048700
     59 H28          5.2110    -1.1510    -5.3510 hc         1 0UQ       0.048700
     60 H29          4.8070    -2.8050    -4.7070 hc         1 0UQ       0.048700
     61 H30          6.5330    -2.2640    -4.7830 hc         1 0UQ       0.048700
     62 H31         -4.8600    -0.7890     1.1940 h1         1 0UQ       0.040700
     63 H32         -4.4800     0.2040    -0.2880 h1         1 0UQ       0.040700
     64 H33         -4.9570    -1.5530    -0.4640 h1         1 0UQ       0.040700
@<TRIPOS>BOND
     1     1     2 1   
     2     1     6 1   
     3     1    33 1   
     4     1    34 1   
     5     2     3 1   
     6     2    35 1   
     7     2    36 1   
     8     3     4 1   
     9     3    17 1   
    10     4     5 1   
    11     4     7 1   
    12     4    37 1   
    13     5     6 1   
    14     5    38 1   
    15     5    39 1   
    16     6     8 1   
    17     6     9 1   
    18     7    40 1   
    19     7    41 1   
    20     7    42 1   
    21     8    10 1   
    22     8    28 1   
    23     9    29 1   
    24     9    43 1   
    25     9    44 1   
    26    10    11 ar  
    27    10    15 ar  
    28    11    12 ar  
    29    11    45 1   
    30    12    13 ar  
    31    12    46 1   
    32    13    14 ar  
    33    13    47 1   
    34    14    15 ar  
    35    14    16 1   
    36    15    48 1   
    37    17    18 1   
    38    17    49 1   
    39    17    50 1   
    40    18    19 ar  
    41    18    23 ar  
    42    19    20 ar  
    43    19    51 1   
    44    20    21 ar  
    45    20    24 1   
    46    21    22 ar  
    47    21    52 1   
    48    22    23 ar  
    49    22    53 1   
    50    23    54 1   
    51    24    25 1   
    52    25    26 1   
    53    25    27 1   
    54    25    55 1   
    55    26    56 1   
    56    26    57 1   
    57    26    58 1   
    58    27    59 1   
    59    27    60 1   
    60    27    61 1   
    61    28    29 1   
    62    28    30 2   
    63    28    32 2   
    64    29    31 1   
    65    31    62 1   
    66    31    63 1   
    67    31    64 1   
@<TRIPOS>SUBSTRUCTURE
     1 0UQ         1 TEMP              0 ****  ****    0 ROOT
