@<TRIPOS>MOLECULE
molecule
   64    67     1     0     0
SMALL
bcc


@<TRIPOS>ATOM
      1 C1           0.0000     0.0000     0.0000 c3         1 0UQ      -0.074400
      2 C2           1.5300     0.0000     0.0000 c3         1 0UQ       0.126800
      3 N1           2.0210     0.0000     1.3840 n3         1 0UQ      -0.719600
      4 C3           1.5880    -1.2050     2.1020 c3         1 0UQ       0.138500
      5 C4           0.0600    -1.2430     2.1650 c3         1 0UQ      -0.070400
      6 C5          -0.5040    -1.2450     0.7400 c3         1 0UQ       0.204200
      7 C6           2.1570    -1.1850     3.5230 c3         1 0UQ      -0.092100
      8 N2          -0.0250    -2.4460     0.0380 nh         1 0UQ      -0.692900
      9 C7          -2.0310    -1.2220     0.7960 c3         1 0UQ       0.193800
     10 C8           1.3010    -2.7950    -0.2280 ca         1 0UQ       0.191600
     11 C9           1.9100    -2.3700    -1.4030 ca         1 0UQ      -0.133000
     12 C10          3.2210    -2.7150    -1.6630 ca         1 0UQ      -0.113000
     13 C11          3.9290    -3.4840    -0.7590 ca         1 0UQ      -0.159000
     14 C12          3.3260    -3.9100     0.4130 ca         1 0UQ       0.127900
     15 C13          2.0140    -3.5620     0.6830 ca         1 0UQ      -0.152000
     16 F1           4.0210    -4.6600     1.2960 f          1 0UQ      -0.134900
     17 C14          3.4830     0.1410     1.4250 c3         1 0UQ       0.206100
     18 C15          3.8730     1.4880     0.8710 ca         1 0UQ      -0.044300
     19 C16          3.9770     2.5760     1.7140 ca         1 0UQ      -0.141000
     20 C17          4.3360     3.8160     1.2050 ca         1 0UQ       0.145100
     21 C18          4.5920     3.9580    -0.1520 ca         1 0UQ      -0.224000
     22 C19          4.4880     2.8650    -0.9900 ca         1 0UQ      -0.091000
     23 C20          4.1340     1.6300    -0.4790 ca         1 0UQ      -0.170000
     24 O1           4.4390     4.8880     2.0330 os         1 0UQ      -0.326900
     25 C21          4.8860     6.1150     1.4520 c3         1 0UQ       0.136100
     26 C22          4.4270     7.2880     2.3200 c3         1 0UQ      -0.105600
     27 C23          6.4140     6.1120     1.3660 c3         1 0UQ      -0.105600
     28 S1          -1.3950    -3.3060    -0.3750 s6         1 0UQ       1.532800
     29 N3          -2.5530    -2.5850     0.5930 n3         1 0UQ      -0.826500
     30 O2          -1.2160    -4.6340     0.0970 o          1 0UQ      -0.634300
     31 C24         -3.7910    -3.1690     1.1130 c3         1 0UQ       0.278100
     32 O3          -1.7080    -2.9790    -1.7210 o          1 0UQ      -0.634300
     33 H1          -0.3610     0.8890     0.5030 hc         1 0UQ       0.060200
     34 H2          -0.3610    -0.0160    -1.0210 hc         1 0UQ       0.060200
     35 H3           1.8890     0.8860    -0.5090 h1         1 0UQ       0.058700
     36 H4           1.8900    -0.8860    -0.5090 h1         1 0UQ       0.058700
     37 H6           1.9470    -2.0820     1.5780 h1         1 0UQ       0.058700
     38 H7          -0.2580    -2.1410     2.6800 hc         1 0UQ       0.058200
     39 H8          -0.3010    -0.3690     2.6940 hc         1 0UQ       0.058200
     40 H9           1.5930    -1.8670     4.1470 hc         1 0UQ       0.041367
     41 H10          3.1960    -1.4920     3.5000 hc         1 0UQ       0.041367
     42 H11          2.0860    -0.1820     3.9260 hc         1 0UQ       0.041367
     43 H12         -2.4100    -0.5720     0.0160 h1         1 0UQ       0.068700
     44 H13         -2.3500    -0.8550     1.7640 h1         1 0UQ       0.068700
     45 H14          1.3570    -1.7680    -2.1130 ha         1 0UQ       0.154000
     46 H15          3.6960    -2.3830    -2.5790 ha         1 0UQ       0.144000
     47 H16          4.9570    -3.7550    -0.9670 ha         1 0UQ       0.149000
     48 H17          1.5410    -3.8950     1.5990 ha         1 0UQ       0.165000
     49 H18          3.8250     0.0580     2.4490 h1         1 0UQ       0.045200
     50 H19          3.9380    -0.6410     0.8280 h1         1 0UQ       0.045200
     51 H20          3.7760     2.4620     2.7730 ha         1 0UQ       0.147000
     52 H21          4.8710     4.9250    -0.5530 ha         1 0UQ       0.137000
     53 H22          4.6890     2.9740    -2.0490 ha         1 0UQ       0.128000
     54 H23          4.0530     0.7750    -1.1390 ha         1 0UQ       0.128000
     55 H24          4.4690     6.2170     0.4580 h1         1 0UQ       0.046700
     56 H25          4.7690     8.2180     1.8820 hc         1 0UQ       0.046700
     57 H26          3.3450     7.2930     2.3780 hc         1 0UQ       0.046700
     58 H27          4.8410     7.1840     3.3160 hc         1 0UQ       0.046700
     59 H28          6.7180     5.9170     0.3450 hc         1 0UQ       0.046700
     60 H29          6.8100     5.3400     2.0150 hc         1 0UQ       0.046700
     61 H30          6.7950     7.0770     1.6780 hc         1 0UQ       0.046700
     62 H31         -4.5210    -2.3840     1.2740 h1         1 0UQ       0.040033
     63 H32         -4.1810    -3.8840     0.4000 h1         1 0UQ       0.040033
     64 H33         -3.5870    -3.6700     2.0520 h1         1 0UQ       0.040033
@<TRIPOS>BOND
     1    26    25 1   
     2    17    18 1   
     3    17     3 1   
     4    25    27 1   
     5    25    24 1   
     6    18    19 ar  
     7    18    23 ar  
     8    19    20 ar  
     9    23    22 ar  
    10    20    24 1   
    11    20    21 ar  
    12     3     2 1   
    13     3     4 1   
    14     7     4 1   
    15    22    21 ar  
    16     2     1 1   
    17     4     5 1   
    18     1     6 1   
    19     5     6 1   
    20     6     9 1   
    21     6     8 1   
    22     9    29 1   
    23    11    12 ar  
    24    11    10 ar  
    25    12    13 ar  
    26    10     8 1   
    27    10    15 ar  
    28     8    28 1   
    29    13    14 ar  
    30    15    14 ar  
    31    14    16 1   
    32    29    28 1   
    33    29    31 1   
    34    28    32 2   
    35    28    30 2   
    36     1    33 1   
    37     1    34 1   
    38     2    35 1   
    39     2    36 1   
    40     4    37 1   
    41     5    38 1   
    42     5    39 1   
    43     7    40 1   
    44     7    41 1   
    45     7    42 1   
    46     9    43 1   
    47     9    44 1   
    48    11    45 1   
    49    12    46 1   
    50    13    47 1   
    51    15    48 1   
    52    17    49 1   
    53    17    50 1   
    54    19    51 1   
    55    21    52 1   
    56    22    53 1   
    57    23    54 1   
    58    25    55 1   
    59    26    56 1   
    60    26    57 1   
    61    26    58 1   
    62    27    59 1   
    63    27    60 1   
    64    27    61 1   
    65    31    62 1   
    66    31    63 1   
    67    31    64 1   
@<TRIPOS>SUBSTRUCTURE
     1 0UQ         1 TEMP              0 ****  ****    0 ROOT
