@<TRIPOS>MOLECULE
molecule
   79    83     1     0     0
SMALL
bcc


@<TRIPOS>ATOM
      1 C16          0.0000     0.0000     0.0000 c2         1 0US      -0.201000
      2 C15          1.3100     0.0000     0.0000 c2         1 0US      -0.188200
      3 C21          2.0630     0.0000     1.3050 c3         1 0US       0.265000
      4 N5           2.9930    -1.1320     1.3320 n7         1 0US      -0.913100
      5 S1           4.2060    -1.1810     2.4580 sy         1 0US       1.422200
      6 O1           4.9010    -2.4020     2.2460 o          1 0US      -0.629300
      7 O2           4.8380     0.0910     2.4220 o          1 0US      -0.629300
      8 C5           3.4420    -1.3110     4.0410 ca         1 0US      -0.322500
      9 C7           3.1090    -0.1700     4.7400 ca         1 0US       0.031000
     10 C22          3.1740    -2.5590     4.5770 ca         1 0US      -0.004000
     11 C26          2.5740    -2.6700     5.8190 ca         1 0US      -0.158000
     12 C23          2.2410    -1.5370     6.5320 ca         1 0US      -0.060000
     13 C6           2.5050    -0.2760     5.9940 ca         1 0US      -0.166600
     14 C4           2.1450     0.9420     6.7500 c          1 0US       0.665700
     15 O3           2.4630     2.0360     6.3260 o          1 0US      -0.512100
     16 N3           1.4650     0.8400     7.9090 ns         1 0US      -0.473400
     17 C1           1.0360     1.9820     8.5620 cc         1 0US       0.485400
     18 N1           1.3290     3.2060     8.2050 nd         1 0US      -0.582100
     19 C2           0.7450     4.0840     9.0640 ca         1 0US       0.104400
     20 C10          0.7280     5.4780     9.1480 ca         1 0US      -0.049000
     21 C11          0.0270     6.0930    10.1610 ca         1 0US      -0.099300
     22 C12          0.0100     7.5980    10.2500 c3         1 0US       0.214100
     23 N4          -1.1250     8.1210     9.4770 n3         1 0US      -0.723600
     24 C24         -2.4020     7.7150    10.0750 c3         1 0US       0.162300
     25 C29         -3.5540     8.1530     9.1680 c3         1 0US      -0.077400
     26 C30         -3.5120     9.6720     8.9930 c3         1 0US      -0.082400
     27 C28         -2.1520    10.0740     8.4130 c3         1 0US      -0.077400
     28 C25         -1.0410     9.5820     9.3430 c3         1 0US       0.162300
     29 C17         -0.6640     5.3400    11.0980 ca         1 0US      -0.120000
     30 C9          -0.6570     3.9630    11.0290 ca         1 0US      -0.144000
     31 C3           0.0440     3.3250    10.0160 ca         1 0US      -0.089200
     32 N2           0.2400     1.9990     9.6710 na         1 0US      -0.172300
     33 C8          -0.3040     0.8300    10.3680 c3         1 0US       0.057000
     34 C14         -1.3750     1.2820    11.3630 c3         1 0US      -0.096900
     35 C19         -2.5000     1.9970    10.6110 c3         1 0US      -0.085900
     36 C13         -0.9260    -0.1280     9.3490 c3         1 0US      -0.096900
     37 C18         -2.0510     0.5880     8.5980 c3         1 0US      -0.085900
     38 C20         -3.1210     1.0400     9.5920 c3         1 0US      -0.066700
     39 C27         -4.2460     1.7550     8.8410 c3         1 0US       0.144400
     40 O4          -5.3130     2.0480     9.7450 oh         1 0US      -0.613800
     41 H16         -0.5420     0.0000    -0.9380 ha         1 0US       0.116500
     42 H16A        -0.5420     0.0000     0.9380 ha         1 0US       0.116500
     43 H15          1.8510     0.0000    -0.9380 ha         1 0US       0.134000
     44 H21          1.3630    -0.0890     2.1270 h1         1 0US       0.054700
     45 H21A         2.6180     0.9250     1.4020 h1         1 0US       0.054700
     46 HN5          2.9060    -1.8660     0.6570 hn         1 0US       0.458800
     47 H7           3.3160     0.8060     4.3180 ha         1 0US       0.180000
     48 H22          3.4330    -3.4520     4.0210 ha         1 0US       0.156000
     49 H26          2.3690    -3.6500     6.2330 ha         1 0US       0.141000
     50 H23          1.7720    -1.6260     7.5040 ha         1 0US       0.123000
     51 HN3          1.3180    -0.0580     8.3240 hn         1 0US       0.332500
     52 H10          1.3410     6.0680     8.4770 ha         1 0US       0.150000
     53 H12          0.9340     7.9950     9.8480 h1         1 0US       0.038700
     54 H12A        -0.0910     7.8970    11.2860 h1         1 0US       0.038700
     55 H24         -2.4210     6.6370    10.1860 h1         1 0US       0.033700
     56 H24A        -2.5100     8.1840    11.0460 h1         1 0US       0.033700
     57 H29         -4.4960     7.8680     9.6200 hc         1 0US       0.047950
     58 H29A        -3.4520     7.6760     8.2010 hc         1 0US       0.047950
     59 H30         -4.2980     9.9790     8.3150 hc         1 0US       0.038200
     60 H30A        -3.6490    10.1500     9.9560 hc         1 0US       0.038200
     61 H28         -2.0300     9.6240     7.4360 hc         1 0US       0.047950
     62 H28A        -2.1010    11.1530     8.3300 hc         1 0US       0.047950
     63 H25         -1.1580    10.0400    10.3180 h1         1 0US       0.033700
     64 H25A        -0.0780     9.8500     8.9260 h1         1 0US       0.033700
     65 H17         -1.2120     5.8360    11.8900 ha         1 0US       0.132000
     66 H9          -1.1980     3.3800    11.7640 ha         1 0US       0.142000
     67 H8           0.4890     0.3210    10.9020 h1         1 0US       0.056700
     68 H14         -0.9340     1.9620    12.0820 hc         1 0US       0.053950
     69 H14A        -1.7780     0.4170    11.8750 hc         1 0US       0.053950
     70 H19         -2.0960     2.8600    10.0940 hc         1 0US       0.061950
     71 H19A        -3.2590     2.3150    11.3160 hc         1 0US       0.061950
     72 H13         -0.1670    -0.4450     8.6440 hc         1 0US       0.053950
     73 H13A        -1.3300    -0.9900     9.8660 hc         1 0US       0.053950
     74 H18         -1.6480     1.4520     8.0850 hc         1 0US       0.061950
     75 H18A        -2.4920    -0.0920     7.8790 hc         1 0US       0.061950
     76 H20         -3.5190     0.1750    10.1090 hc         1 0US       0.058700
     77 H27         -3.8680     2.6780     8.4180 h1         1 0US       0.025700
     78 H27A        -4.6120     1.1160     8.0450 h1         1 0US       0.025700
     79 HO4         -6.0820     2.2910     9.2560 ho         1 0US       0.404000
@<TRIPOS>BOND
     1     2     1 2
     2     1    41 1
     3     1    42 1
     4     3     2 1
     5     2    43 1
     6     3     4 1
     7     3    44 1
     8     3    45 1
     9     5     4 1
    10     4    46 1
    11     7     5 2
    12     5     6 2
    13     5     8 1
    14     9     8 ar
    15     8    10 ar
    16     9    13 ar
    17     9    47 1
    18    10    11 ar
    19    10    48 1
    20    12    11 ar
    21    11    49 1
    22    13    12 ar
    23    12    50 1
    24    14    13 1
    25    16    14 1
    26    14    15 2
    27    17    16 1
    28    16    51 1
    29    32    17 1
    30    17    18 2
    31    19    18 1
    32    31    19 ar
    33    20    19 ar
    34    21    20 ar
    35    20    52 1
    36    29    21 ar
    37    22    21 1
    38    22    23 1
    39    22    53 1
    40    22    54 1
    41    24    23 1
    42    23    28 1
    43    24    25 1
    44    24    55 1
    45    24    56 1
    46    25    26 1
    47    25    57 1
    48    25    58 1
    49    26    27 1
    50    26    59 1
    51    26    60 1
    52    28    27 1
    53    27    61 1
    54    27    62 1
    55    28    63 1
    56    28    64 1
    57    29    30 ar
    58    29    65 1
    59    30    31 ar
    60    30    66 1
    61    31    32 1
    62    33    32 1
    63    36    33 1
    64    33    34 1
    65    33    67 1
    66    35    34 1
    67    34    68 1
    68    34    69 1
    69    38    35 1
    70    35    70 1
    71    35    71 1
    72    37    36 1
    73    36    72 1
    74    36    73 1
    75    37    38 1
    76    37    74 1
    77    37    75 1
    78    38    39 1
    79    38    76 1
    80    40    39 1
    81    39    77 1
    82    39    78 1
    83    40    79 1
@<TRIPOS>SUBSTRUCTURE
     1 0US         1 TEMP              0 ****  ****    0 ROOT
