@<TRIPOS>MOLECULE
0US
   80    84     1     0     0
SMALL
bcc


@<TRIPOS>ATOM
      1 C16          4.2830     1.9500    -1.6600 c2         1 0US      -0.123000
      2 C15          3.4790     1.6430    -0.6440 c2         1 0US      -0.254200
      3 C21          3.7460     2.0850     0.7540 c3         1 0US       0.157000
      4 N5           3.7920     0.9640     1.7270 ny         1 0US      -0.708900
      5 S1           4.2620     1.5080     3.4680 sy         1 0US       1.477200
      6 O1           4.4310     2.8740     3.3340 o          1 0US      -0.570800
      7 O2           5.3380     0.6760     3.7040 o          1 0US      -0.570800
      8 C5           2.8970     1.0900     4.2230 ca         1 0US      -0.525500
      9 C7           2.6680    -0.2390     4.6250 ca         1 0US       0.047000
     10 C22          1.9370     2.0640     4.5820 ca         1 0US       0.018000
     11 C26          0.8050     1.7210     5.3070 ca         1 0US      -0.148000
     12 C23          0.5850     0.3910     5.6850 ca         1 0US       0.014000
     13 C6           1.5160    -0.5890     5.3290 ca         1 0US      -0.158600
     14 C4           1.3560    -2.0330     5.6990 c          1 0US       0.659700
     15 O3           2.3100    -2.6670     6.1730 o          1 0US      -0.523100
     16 N3           0.1460    -2.6180     5.3310 ns         1 0US      -0.450400
     17 C1          -0.1120    -3.9740     5.6700 cc         1 0US       0.412400
     18 N1          -0.7260    -4.3890     6.8100 nd         1 0US      -0.546100
     19 C2          -0.7860    -5.7870     6.7090 ca         1 0US       0.063400
     20 C10         -1.3170    -6.7400     7.5940 ca         1 0US      -0.063000
     21 C11         -1.2340    -8.0820     7.2470 ca         1 0US      -0.095300
     22 C12         -1.7390    -9.1260     8.2040 c3         1 0US       0.214100
     23 N4          -2.6340   -10.1000     7.5910 n3         1 0US      -0.731600
     24 C24         -2.8210   -11.2670     8.4470 c3         1 0US       0.168300
     25 C29         -3.7570   -12.3110     7.8410 c3         1 0US      -0.076900
     26 C30         -5.0780   -11.6950     7.4360 c3         1 0US      -0.079400
     27 C28         -4.8500   -10.5080     6.5260 c3         1 0US      -0.076900
     28 C25         -3.8940    -9.5040     7.1640 c3         1 0US       0.168300
     29 C17         -0.6360    -8.4880     6.0330 ca         1 0US      -0.074000
     30 C9          -0.1060    -7.5790     5.1340 ca         1 0US      -0.144000
     31 C3          -0.1760    -6.2180     5.4660 ca         1 0US      -0.057200
     32 N2           0.2600    -5.0570     4.8090 na         1 0US      -0.146300
     33 C8           0.8490    -5.0210     3.4920 c3         1 0US       0.069000
     34 C14         -0.0320    -4.3060     2.4520 c3         1 0US      -0.091900
     35 C19          0.5880    -4.4000     1.0750 c3         1 0US      -0.075900
     36 C13          2.2670    -4.4260     3.4710 c3         1 0US      -0.091900
     37 C18          2.8670    -4.5020     2.0850 c3         1 0US      -0.075900
     38 C20          2.0020    -3.8410     1.0240 c3         1 0US      -0.099700
     39 C27          1.9740    -2.3230     1.1500 c3         1 0US       0.131400
     40 O4           3.2590    -1.7170     1.0770 oh         1 0US      -0.677800
     41 H16          4.0450     1.6610    -2.6950 ha         1 0US       0.140500
     42 H16A         5.2190     2.5170    -1.5420 ha         1 0US       0.140500
     43 H15          2.5420     1.0830    -0.7970 ha         1 0US       0.144000
     44 H21          2.9290     2.7930     1.0850 hx         1 0US       0.103200
     45 H21A         4.7310     2.6380     0.8220 hx         1 0US       0.103200
     46 HN5          4.4730     0.2720     1.3960 hn         1 0US       0.461800
     47 H7           3.4190    -1.0250     4.4040 ha         1 0US       0.186000
     48 H22          2.1050     3.1200     4.2950 ha         1 0US       0.173000
     49 H26          0.0780     2.5000     5.5960 ha         1 0US       0.178000
     50 H23         -0.3120     0.1280     6.2730 ha         1 0US       0.173000
     51 HN3         -0.6690    -2.0420     5.3060 hn         1 0US       0.327500
     52 H10         -1.7800    -6.4170     8.5390 ha         1 0US       0.154000
     53 H12         -2.2270    -8.6110     9.0860 h1         1 0US       0.043700
     54 H12A        -0.8400    -9.6850     8.5980 h1         1 0US       0.043700
     55 H24         -3.2240   -10.9720     9.4620 h1         1 0US       0.031450
     56 H24A        -1.8100   -11.7370     8.6050 h1         1 0US       0.031450
     57 H29         -3.9230   -13.1170     8.6020 hc         1 0US       0.047950
     58 H29A        -3.2700   -12.7800     6.9460 hc         1 0US       0.047950
     59 H30         -5.6370   -11.3660     8.3520 hc         1 0US       0.043200
     60 H30A        -5.7100   -12.4600     6.9140 hc         1 0US       0.043200
     61 H28         -5.8200    -9.9890     6.3170 hc         1 0US       0.047950
     62 H28A        -4.4320   -10.8600     5.5470 hc         1 0US       0.047950
     63 H25         -3.6450    -8.7030     6.4110 h1         1 0US       0.031450
     64 H25A        -4.4270    -9.0050     8.0280 h1         1 0US       0.031450
     65 H17         -0.5990    -9.5650     5.7990 ha         1 0US       0.158000
     66 H9           0.3550    -7.9180     4.1970 ha         1 0US       0.137000
     67 H8           0.9400    -6.1040     3.1640 h1         1 0US       0.076700
     68 H14         -0.1710    -3.2310     2.7330 hc         1 0US       0.055700
     69 H14A        -1.0490    -4.7810     2.4290 hc         1 0US       0.055700
     70 H19         -0.0610    -3.8520     0.3420 hc         1 0US       0.055700
     71 H19A         0.6200    -5.4760     0.7530 hc         1 0US       0.055700
     72 H13          2.9220    -4.9840     4.1920 hc         1 0US       0.055700
     73 H13A         2.2480    -3.3560     3.8050 hc         1 0US       0.055700
     74 H18          3.8770    -4.0130     2.0990 hc         1 0US       0.055700
     75 H18A         3.0180    -5.5790     1.8020 hc         1 0US       0.055700
     76 H20          2.4410    -4.0890     0.0150 hc         1 0US       0.058700
     77 H27          1.5670    -2.0060     2.1480 h1         1 0US       0.044700
     78 H27A         1.3380    -1.8860     0.3310 h1         1 0US       0.044700
     79 HO4          3.8160    -2.2630     0.5070 ho         1 0US       0.430000
     80 H52          2.8960     0.4700     1.7060 hn         1 0US       0.461800
@<TRIPOS>BOND
     1     1     2 2   
     2     1    41 1   
     3     1    42 1   
     4     2     3 1   
     5     2    43 1   
     6     3     4 1   
     7     3    44 1   
     8     3    45 1   
     9     4     5 1   
    10     4    46 1   
    11     4    80 1   
    12     5     6 2   
    13     5     7 2   
    14     5     8 1   
    15     8     9 ar  
    16     8    10 ar  
    17     9    13 ar  
    18     9    47 1   
    19    10    11 ar  
    20    10    48 1   
    21    11    12 ar  
    22    11    49 1   
    23    12    13 ar  
    24    12    50 1   
    25    13    14 1   
    26    14    15 2   
    27    14    16 1   
    28    16    17 1   
    29    16    51 1   
    30    17    18 2   
    31    17    32 1   
    32    18    19 1   
    33    19    20 ar  
    34    19    31 ar  
    35    20    21 ar  
    36    20    52 1   
    37    21    22 1   
    38    21    29 ar  
    39    22    23 1   
    40    22    53 1   
    41    22    54 1   
    42    23    24 1   
    43    23    28 1   
    44    24    25 1   
    45    24    55 1   
    46    24    56 1   
    47    25    26 1   
    48    25    57 1   
    49    25    58 1   
    50    26    27 1   
    51    26    59 1   
    52    26    60 1   
    53    27    28 1   
    54    27    61 1   
    55    27    62 1   
    56    28    63 1   
    57    28    64 1   
    58    29    30 ar  
    59    29    65 1   
    60    30    31 ar  
    61    30    66 1   
    62    31    32 1   
    63    32    33 1   
    64    33    34 1   
    65    33    36 1   
    66    33    67 1   
    67    34    35 1   
    68    34    68 1   
    69    34    69 1   
    70    35    38 1   
    71    35    70 1   
    72    35    71 1   
    73    36    37 1   
    74    36    72 1   
    75    36    73 1   
    76    37    38 1   
    77    37    74 1   
    78    37    75 1   
    79    38    39 1   
    80    38    76 1   
    81    39    40 1   
    82    39    77 1   
    83    39    78 1   
    84    40    79 1   
@<TRIPOS>SUBSTRUCTURE
     1 0US         1 TEMP              0 ****  ****    0 ROOT
