@<TRIPOS>MOLECULE
0UT
   28    30     1     0     0
SMALL
bcc


@<TRIPOS>ATOM
      1 O01          0.0000     0.0000     0.0000 o          1 0UT      -0.595500
      2 C02          1.2080     0.0000     0.0000 c2         1 0UT       0.393000
      3 O03          1.8800     0.0000     1.1620 o          1 0UT      -0.595500
      4 C04          1.9620    -0.0060    -1.3060 DU         1 0UT       0.106000
      5 O05          1.0400     0.1390    -2.3880 oh         1 0UT      -0.403000
      6 C07          2.9420     1.1390    -1.3240 ca         1 0UT      -0.067500
      7 H2           1.6690    -0.5550    -2.2730 DU         1 0UT       0.281000
      8 C1           3.4720    -1.7850    -0.4030 ca         1 0UT      -0.107750
      9 C2           4.1550    -2.9800    -0.5360 ca         1 0UT      -0.112750
     10 C3           4.0780    -3.6930    -1.7170 ca         1 0UT      -0.190000
     11 C4           3.3160    -3.2130    -2.7650 ca         1 0UT      -0.112750
     12 C5           2.6330    -2.0180    -2.6330 ca         1 0UT      -0.107750
     13 C06          2.7070    -1.3080    -1.4500 ca         1 0UT      -0.067500
     14 H11          3.4270    -4.4580    -2.1230 ha         1 0UT       0.135500
     15 H12          2.9160    -3.8380    -3.5550 ha         1 0UT       0.089750
     16 H13          2.5280    -1.5490    -3.6040 ha         1 0UT       0.145750
     17 C6           2.8790     2.0870    -2.3280 ca         1 0UT      -0.107750
     18 C7           3.7790     3.1360    -2.3460 ca         1 0UT      -0.112750
     19 C8           4.7410     3.2390    -1.3590 ca         1 0UT      -0.190000
     20 C9           4.8040     2.2910    -0.3550 ca         1 0UT      -0.112750
     21 C10          3.9020     1.2430    -0.3350 ca         1 0UT      -0.107750
     22 H3           2.1250     2.0070    -3.1020 ha         1 0UT       0.145750
     23 H4           3.7290     3.8790    -3.1330 ha         1 0UT       0.089750
     24 H5           5.4470     4.0600    -1.3740 ha         1 0UT       0.135500
     25 H6           5.5570     2.3720     0.4200 ha         1 0UT       0.089750
     26 H7           3.9510     0.5010     0.4520 ha         1 0UT       0.145750
     27 H9           3.5330    -1.2260     0.5220 ha         1 0UT       0.145750
     28 H10          4.7540    -3.3550     0.2860 ha         1 0UT       0.089750
@<TRIPOS>BOND
     1     1     2 1   
     2     2     3 1   
     3     2     4 1   
     4     4     5 1   
     5     4     6 1   
     6     4     7 1   
     7     4    13 1   
     8     5     7 1   
     9     6    17 1   
    10     6    21 1   
    11     8     9 1   
    12     8    13 1   
    13     8    27 1   
    14     9    10 1   
    15     9    28 1   
    16    10    11 1   
    17    10    14 1   
    18    11    12 1   
    19    11    15 1   
    20    12    13 1   
    21    12    16 1   
    22    17    18 1   
    23    17    22 1   
    24    18    19 1   
    25    18    23 1   
    26    19    20 1   
    27    19    24 1   
    28    20    21 1   
    29    20    25 1   
    30    21    26 1   
@<TRIPOS>SUBSTRUCTURE
     1 0UT         1 TEMP              0 ****  ****    0 ROOT
