@<TRIPOS>MOLECULE
molecule
   28    29     1     0     0
SMALL
bcc


@<TRIPOS>ATOM
      1 O01          0.0000     0.0000     0.0000 o          1 0UT      -0.827300
      2 C02          1.2080     0.0000     0.0000 c          1 0UT       0.885600
      3 O03          1.8800     0.0000     1.1620 o          1 0UT      -0.827300
      4 C04          1.9620    -0.0060    -1.3060 c3         1 0UT       0.127400
      5 O05          1.0400     0.1390    -2.3880 oh         1 0UT      -0.632800
      6 C07          2.9420     1.1390    -1.3240 ca         1 0UT      -0.045800
      7 H2           0.1760    -0.1030    -2.1000 ho         1 0UT       0.427000
      8 C1           3.4720    -1.7850    -0.4030 ca         1 0UT      -0.104750
      9 C2           4.1550    -2.9800    -0.5360 ca         1 0UT      -0.153250
     10 C3           4.0780    -3.6930    -1.7170 ca         1 0UT      -0.152000
     11 C4           3.3160    -3.2130    -2.7650 ca         1 0UT      -0.153250
     12 C5           2.6330    -2.0180    -2.6330 ca         1 0UT      -0.104750
     13 C06          2.7070    -1.3080    -1.4500 ca         1 0UT      -0.045800
     14 H11          4.6130    -4.6300    -1.8200 ha         1 0UT       0.102500
     15 H12          3.2560    -3.7710    -3.6920 ha         1 0UT       0.108750
     16 H13          2.0350    -1.6410    -3.4550 ha         1 0UT       0.158750
     17 C6           2.8790     2.0870    -2.3280 ca         1 0UT      -0.104750
     18 C7           3.7790     3.1360    -2.3460 ca         1 0UT      -0.153250
     19 C8           4.7410     3.2390    -1.3590 ca         1 0UT      -0.152000
     20 C9           4.8040     2.2910    -0.3550 ca         1 0UT      -0.153250
     21 C10          3.9020     1.2430    -0.3350 ca         1 0UT      -0.104750
     22 H3           2.1250     2.0070    -3.1020 ha         1 0UT       0.158750
     23 H4           3.7290     3.8790    -3.1330 ha         1 0UT       0.108750
     24 H5           5.4470     4.0600    -1.3740 ha         1 0UT       0.102500
     25 H6           5.5570     2.3720     0.4200 ha         1 0UT       0.108750
     26 H7           3.9510     0.5010     0.4520 ha         1 0UT       0.158750
     27 H9           3.5330    -1.2260     0.5220 ha         1 0UT       0.158750
     28 H10          4.7540    -3.3550     0.2860 ha         1 0UT       0.108750
@<TRIPOS>BOND
     1     6     4 1
     2     4     5 1
     3     4    13 1
     4     4     2 1
     5     1     2 1
     6     2     3 1
     7     5     7 1
     8    13     8 ar
     9     8     9 ar
    10     9    10 ar
    11    10    11 ar
    12    11    12 ar
    13    12    13 ar
    14     8    27 1
    15     9    28 1
    16    10    14 1
    17    11    15 1
    18    12    16 1
    19     6    17 ar
    20    17    18 ar
    21    18    19 ar
    22    19    20 ar
    23    20    21 ar
    24    21     6 ar
    25    17    22 1
    26    18    23 1
    27    19    24 1
    28    20    25 1
    29    21    26 1
@<TRIPOS>SUBSTRUCTURE
     1 0UT         1 TEMP              0 ****  ****    0 ROOT
