@<TRIPOS>MOLECULE
0UU
   69    73     1     0     0
SMALL
bcc


@<TRIPOS>ATOM
      1 C28         -0.3510     1.0110     0.4820 c3         1 0UU       0.123700
      2 O2           1.0620     1.1970     0.5730 os         1 0UU      -0.434900
      3 C27          1.8310     0.0720     0.6860 c          1 0UU       0.642100
      4 O3           1.2550    -1.0200     0.7020 o          1 0UU      -0.566000
      5 C15          3.3020     0.3860     0.7700 c3         1 0UU      -0.111700
      6 C16          4.0470    -0.2310    -0.4060 c3         1 0UU      -0.069900
      7 C17          4.1060    -1.7410    -0.3250 c3         1 0UU      -0.101900
      8 C14          3.8810    -0.1010     2.0920 c3         1 0UU      -0.069900
      9 C13          3.9300    -1.6120     2.1780 c3         1 0UU      -0.101900
     10 C12          4.7440    -2.1840     1.0050 c3         1 0UU       0.061000
     11 N2           4.9640    -3.6060     1.1000 na         1 0UU      -0.173300
     12 C3           6.1990    -4.2230     0.8300 ca         1 0UU      -0.077200
     13 C5           7.5010    -3.7190     0.7410 ca         1 0UU      -0.133000
     14 C6           8.5340    -4.6230     0.5010 ca         1 0UU      -0.074300
     15 C18          9.9350    -4.1060     0.3420 c3         1 0UU       0.218100
     16 N3          10.9240    -4.7890     1.1670 n3         1 0UU      -0.727600
     17 C7          10.6400    -4.6780     2.5920 c3         1 0UU       0.168300
     18 C8          11.6720    -5.3840     3.4680 c3         1 0UU      -0.076900
     19 C9          13.0740    -4.9160     3.1420 c3         1 0UU      -0.078400
     20 C10         13.3500    -5.0690     1.6620 c3         1 0UU      -0.076900
     21 C11         12.2790    -4.3720     0.8260 c3         1 0UU       0.168300
     22 C4           8.2780    -6.0020     0.3580 ca         1 0UU      -0.129000
     23 C2           6.9960    -6.5210     0.4480 ca         1 0UU      -0.078000
     24 C1           5.9320    -5.6390     0.6790 ca         1 0UU       0.081400
     25 N1           4.5530    -5.8850     0.8010 nc         1 0UU      -0.551100
     26 C19          3.9870    -4.6690     1.0310 cd         1 0UU       0.480400
     27 N4           2.6170    -4.4380     1.2300 ns         1 0UU      -0.490400
     28 C20          1.8270    -5.2570     2.0400 c          1 0UU       0.690700
     29 O1           2.3250    -6.1040     2.7970 o          1 0UU      -0.545100
     30 C21          0.3510    -5.0570     1.9450 ca         1 0UU      -0.147600
     31 C22         -0.2310    -3.7960     1.7920 ca         1 0UU      -0.088000
     32 C23         -1.6200    -3.6800     1.7300 ca         1 0UU      -0.140500
     33 C24         -2.4260    -4.8150     1.8180 ca         1 0UU      -0.108000
     34 C25         -1.8440    -6.0730     1.9760 ca         1 0UU      -0.140500
     35 C26         -0.4580    -6.1970     2.0440 ca         1 0UU      -0.088000
     36 H1          -0.5980     0.4020    -0.4210 h1         1 0UU       0.053033
     37 H2          -0.7290     0.5040     1.4020 h1         1 0UU       0.053033
     38 H3          -0.7490     2.0530     0.3950 h1         1 0UU       0.053033
     39 H4           3.4160     1.5080     0.7200 hc         1 0UU       0.086700
     40 H5           5.0890     0.1880    -0.4160 hc         1 0UU       0.056450
     41 H6           3.5520     0.0700    -1.3650 hc         1 0UU       0.056450
     42 H7           3.0660    -2.1540    -0.4130 hc         1 0UU       0.065450
     43 H8           4.7060    -2.1330    -1.1870 hc         1 0UU       0.065450
     44 H9           3.2680     0.2980     2.9420 hc         1 0UU       0.056450
     45 H10          4.9170     0.3200     2.1940 hc         1 0UU       0.056450
     46 H11          2.8810    -2.0090     2.1630 hc         1 0UU       0.065450
     47 H12          4.3990    -1.9150     3.1510 hc         1 0UU       0.065450
     48 H13          5.7740    -1.7080     1.0550 h1         1 0UU       0.064700
     49 H14          7.7080    -2.6470     0.8610 ha         1 0UU       0.130000
     50 H15         10.2350    -4.2620    -0.7360 h1         1 0UU       0.034700
     51 H16          9.9400    -2.9900     0.5340 h1         1 0UU       0.034700
     52 H18         10.5790    -3.5960     2.9160 h1         1 0UU       0.030950
     53 H19          9.6290    -5.1450     2.7670 h1         1 0UU       0.030950
     54 H20         11.6010    -6.4930     3.3180 hc         1 0UU       0.047200
     55 H21         11.4320    -5.1680     4.5410 hc         1 0UU       0.047200
     56 H22         13.8210    -5.5100     3.7310 hc         1 0UU       0.038700
     57 H23         13.1910    -3.8400     3.4380 hc         1 0UU       0.038700
     58 H24         14.3440    -4.6210     1.4060 hc         1 0UU       0.047200
     59 H25         13.3860    -6.1580     1.3970 hc         1 0UU       0.047200
     60 H26         12.4470    -4.6240    -0.2600 h1         1 0UU       0.030950
     61 H27         12.4080    -3.2550     0.9390 h1         1 0UU       0.030950
     62 H28          9.1270    -6.6800     0.1770 ha         1 0UU       0.148000
     63 H29          6.8090    -7.6000     0.3440 ha         1 0UU       0.151000
     64 H30          2.2000    -3.6870     0.7250 hn         1 0UU       0.341500
     65 H31          0.3870    -2.8850     1.7280 ha         1 0UU       0.156000
     66 H32         -2.0780    -2.6870     1.6110 ha         1 0UU       0.136000
     67 H33         -3.5210    -4.7180     1.7660 ha         1 0UU       0.133000
     68 H34         -2.4780    -6.9690     2.0500 ha         1 0UU       0.136000
     69 H35          0.0130    -7.1840     2.1840 ha         1 0UU       0.156000
@<TRIPOS>BOND
     1     1     2 1   
     2     1    36 1   
     3     1    37 1   
     4     1    38 1   
     5     2     3 1   
     6     3     4 2   
     7     3     5 1   
     8     5     6 1   
     9     5     8 1   
    10     5    39 1   
    11     6     7 1   
    12     6    40 1   
    13     6    41 1   
    14     7    10 1   
    15     7    42 1   
    16     7    43 1   
    17     8     9 1   
    18     8    44 1   
    19     8    45 1   
    20     9    10 1   
    21     9    46 1   
    22     9    47 1   
    23    10    11 1   
    24    10    48 1   
    25    11    12 1   
    26    11    26 1   
    27    12    13 ar  
    28    12    24 ar  
    29    13    14 ar  
    30    13    49 1   
    31    14    15 1   
    32    14    22 ar  
    33    15    16 1   
    34    15    50 1   
    35    15    51 1   
    36    16    17 1   
    37    16    21 1   
    38    17    18 1   
    39    17    52 1   
    40    17    53 1   
    41    18    19 1   
    42    18    54 1   
    43    18    55 1   
    44    19    20 1   
    45    19    56 1   
    46    19    57 1   
    47    20    21 1   
    48    20    58 1   
    49    20    59 1   
    50    21    60 1   
    51    21    61 1   
    52    22    23 ar  
    53    22    62 1   
    54    23    24 ar  
    55    23    63 1   
    56    24    25 1   
    57    25    26 2   
    58    26    27 1   
    59    27    28 1   
    60    27    64 1   
    61    28    29 2   
    62    28    30 1   
    63    30    31 ar  
    64    30    35 ar  
    65    31    32 ar  
    66    31    65 1   
    67    32    33 ar  
    68    32    66 1   
    69    33    34 ar  
    70    33    67 1   
    71    34    35 ar  
    72    34    68 1   
    73    35    69 1   
@<TRIPOS>SUBSTRUCTURE
     1 0UU         1 TEMP              0 ****  ****    0 ROOT
