@<TRIPOS>MOLECULE
molecule
   69    73     1     0     0
SMALL
bcc


@<TRIPOS>ATOM
      1 C28          0.0000     0.0000     0.0000 c3         1 0UU       0.138700
      2 O2           1.4530     0.0000     0.0000 os         1 0UU      -0.432900
      3 C27          2.0630     0.0000     1.1950 c          1 0UU       0.633100
      4 O3           1.4080    -0.0960     2.2070 o          1 0UU      -0.540000
      5 C15          3.5630     0.1190     1.2760 c3         1 0UU      -0.110700
      6 C16          4.0130    -0.0850     2.7240 c3         1 0UU      -0.079900
      7 C17          5.5370     0.0360     2.8060 c3         1 0UU      -0.098900
      8 C14          3.9900     1.5080     0.8000 c3         1 0UU      -0.079900
      9 C13          5.5130     1.6290     0.8810 c3         1 0UU      -0.098900
     10 C12          5.9640     1.4250     2.3290 c3         1 0UU       0.057000
     11 N2           5.3470     2.4460     3.1810 na         1 0UU      -0.174300
     12 C3           4.7020     2.2280     4.3860 ca         1 0UU      -0.092200
     13 C5           4.4320     1.0970     5.1430 ca         1 0UU      -0.119000
     14 C6           3.7490     1.2160     6.3350 ca         1 0UU      -0.072300
     15 C18          3.4570    -0.0140     7.1560 c3         1 0UU       0.212100
     16 N3           4.5620    -0.2490     8.0960 n3         1 0UU      -0.727600
     17 C7           4.4310    -1.5600     8.7440 c3         1 0UU       0.161800
     18 C8           5.6700    -1.8310     9.6010 c3         1 0UU      -0.077400
     19 C9           5.8060    -0.7300    10.6560 c3         1 0UU      -0.082400
     20 C10          5.8920     0.6290     9.9560 c3         1 0UU      -0.077400
     21 C11          4.6470     0.8290     9.0890 c3         1 0UU       0.161800
     22 C4           3.3280     2.4590     6.7830 ca         1 0UU      -0.141000
     23 C2           3.5860     3.5920     6.0450 ca         1 0UU      -0.074000
     24 C1           4.2780     3.4890     4.8350 ca         1 0UU       0.108400
     25 N1           4.6730     4.3980     3.9050 nc         1 0UU      -0.584100
     26 C19          5.3060     3.7870     2.9360 cd         1 0UU       0.487400
     27 N4           5.8500     4.4110     1.8270 ns         1 0UU      -0.473400
     28 C20          5.6470     5.7270     1.6250 c          1 0UU       0.666700
     29 O1           5.0660     6.3880     2.4650 o          1 0UU      -0.520100
     30 C21          6.1300     6.3690     0.3860 ca         1 0UU      -0.145600
     31 C22          6.6890     5.5940    -0.6330 ca         1 0UU      -0.087000
     32 C23          7.1380     6.1980    -1.7890 ca         1 0UU      -0.136000
     33 C24          7.0360     7.5710    -1.9400 ca         1 0UU      -0.103000
     34 C25          6.4840     8.3450    -0.9340 ca         1 0UU      -0.136000
     35 C26          6.0260     7.7510     0.2240 ca         1 0UU      -0.087000
     36 H1          -0.3610     0.0340    -1.0210 h1         1 0UU       0.050033
     37 H2          -0.3610    -0.9010     0.4810 h1         1 0UU       0.050033
     38 H3          -0.3610     0.8670     0.5400 h1         1 0UU       0.050033
     39 H4           4.0230    -0.6340     0.6480 hc         1 0UU       0.070700
     40 H5           3.5580     0.6720     3.3520 hc         1 0UU       0.071700
     41 H6           3.7120    -1.0700     3.0590 hc         1 0UU       0.071700
     42 H7           5.9920    -0.7170     2.1740 hc         1 0UU       0.057700
     43 H8           5.8540    -0.1060     3.8320 hc         1 0UU       0.057700
     44 H9           3.5350     2.2610     1.4320 hc         1 0UU       0.071700
     45 H10          3.6720     1.6500    -0.2260 hc         1 0UU       0.071700
     46 H11          5.9690     0.8730     0.2530 hc         1 0UU       0.057700
     47 H12          5.8150     2.6140     0.5460 hc         1 0UU       0.057700
     48 H13          7.0430     1.5070     2.3850 h1         1 0UU       0.059700
     49 H14          4.8390     0.1380     4.8460 ha         1 0UU       0.143000
     50 H15          2.5370     0.1310     7.7090 h1         1 0UU       0.040200
     51 H16          3.3530    -0.8690     6.5000 h1         1 0UU       0.040200
     52 H18          4.3430    -2.3290     7.9860 h1         1 0UU       0.034950
     53 H19          3.5500    -1.5630     9.3740 h1         1 0UU       0.034950
     54 H20          5.5640    -2.7900    10.0930 hc         1 0UU       0.047450
     55 H21          6.5500    -1.8370     8.9700 hc         1 0UU       0.047450
     56 H22          6.7070    -0.8950    11.2360 hc         1 0UU       0.038700
     57 H23          4.9420    -0.7460    11.3090 hc         1 0UU       0.038700
     58 H24          6.7760     0.6570     9.3310 hc         1 0UU       0.047450
     59 H25          5.9430     1.4150    10.7000 hc         1 0UU       0.047450
     60 H26          3.7650     0.8100     9.7170 h1         1 0UU       0.034950
     61 H27          4.7140     1.7830     8.5790 h1         1 0UU       0.034950
     62 H28          2.7910     2.5400     7.7210 ha         1 0UU       0.132000
     63 H29          3.2540     4.5600     6.4010 ha         1 0UU       0.145000
     64 H30          6.4390     3.8950     1.2030 hn         1 0UU       0.332500
     65 H31          6.7690     4.5200    -0.5160 ha         1 0UU       0.139500
     66 H32          7.5710     5.5980    -2.5800 ha         1 0UU       0.136000
     67 H33          7.3920     8.0410    -2.8480 ha         1 0UU       0.134000
     68 H34          6.4060     9.4180    -1.0590 ha         1 0UU       0.136000
     69 H35          5.5940     8.3580     1.0110 ha         1 0UU       0.139500
@<TRIPOS>BOND
     1    19    18 1   
     2    19    20 1   
     3    18    17 1   
     4    20    21 1   
     5    17    16 1   
     6    21    16 1   
     7    16    15 1   
     8    15    14 1   
     9     8     9 1   
    10     8     5 1   
    11    14    13 ar  
    12    14    22 ar  
    13    13    12 ar  
    14     9    10 1   
    15     5     6 1   
    16     5     3 1   
    17    10    11 1   
    18    10     7 1   
    19    22    23 ar  
    20    12    11 1   
    21    12    24 ar  
    22    11    26 1   
    23     6     7 1   
    24     4     3 2   
    25    23    24 ar  
    26    24    25 1   
    27     3     2 1   
    28    26    25 2   
    29    26    27 1   
    30    27    28 1   
    31     2     1 1   
    32    28    29 2   
    33    28    30 1   
    34    31    30 ar  
    35    31    32 ar  
    36    30    35 ar  
    37    32    33 ar  
    38    35    34 ar  
    39    33    34 ar  
    40     1    36 1   
    41     1    37 1   
    42     1    38 1   
    43     5    39 1   
    44     6    40 1   
    45     6    41 1   
    46     7    42 1   
    47     7    43 1   
    48     8    44 1   
    49     8    45 1   
    50     9    46 1   
    51     9    47 1   
    52    10    48 1   
    53    13    49 1   
    54    15    50 1   
    55    15    51 1   
    56    17    52 1   
    57    17    53 1   
    58    18    54 1   
    59    18    55 1   
    60    19    56 1   
    61    19    57 1   
    62    20    58 1   
    63    20    59 1   
    64    21    60 1   
    65    21    61 1   
    66    22    62 1   
    67    23    63 1   
    68    27    64 1   
    69    31    65 1   
    70    32    66 1   
    71    33    67 1   
    72    34    68 1   
    73    35    69 1   
@<TRIPOS>SUBSTRUCTURE
     1 0UU         1 TEMP              0 ****  ****    0 ROOT
