@<TRIPOS>MOLECULE
0UU
   69    73     1     0     0
SMALL
bcc


@<TRIPOS>ATOM
      1 C28          0.0000     0.0000     0.0000 c3         1 0UU       0.268700
      2 O2           1.4530     0.0000     0.0000 os         1 0UU      -0.417900
      3 C27          2.0630     0.0000     1.1950 c          1 0UU       0.694100
      4 O3           1.4080    -0.0960     2.2070 o          1 0UU      -0.575000
      5 C15          3.5630     0.1190     1.2760 c3         1 0UU      -0.087700
      6 C16          4.0130    -0.0850     2.7240 c3         1 0UU      -0.046400
      7 C17          5.5370     0.0360     2.8060 c3         1 0UU      -0.053400
      8 C14          3.9900     1.5080     0.8000 c3         1 0UU      -0.046400
      9 C13          5.5130     1.6290     0.8810 c3         1 0UU      -0.053400
     10 C12          5.9640     1.4250     2.3290 c3         1 0UU      -0.048000
     11 N2           5.3470     2.4460     3.1810 na         1 0UU       0.278700
     12 C3           4.7020     2.2280     4.3860 ca         1 0UU      -0.248200
     13 C5           4.4320     1.0970     5.1430 ca         1 0UU      -0.106000
     14 C6           3.7490     1.2160     6.3350 ca         1 0UU      -0.077300
     15 C18          3.4570    -0.0140     7.1560 c3         1 0UU       0.213100
     16 N3           4.5620    -0.2490     8.0960 n3         1 0UU      -0.537600
     17 C7           4.4310    -1.5600     8.7440 c3         1 0UU       0.145300
     18 C8           5.6700    -1.8310     9.6010 c3         1 0UU      -0.023400
     19 C9           5.8060    -0.7300    10.6560 c3         1 0UU      -0.027400
     20 C10          5.8920     0.6290     9.9560 c3         1 0UU      -0.023400
     21 C11          4.6470     0.8290     9.0890 c3         1 0UU       0.145300
     22 C4           3.3280     2.4590     6.7830 ca         1 0UU      -0.120000
     23 C2           3.5860     3.5920     6.0450 ca         1 0UU      -0.037000
     24 C1           4.2780     3.4890     4.8350 ca         1 0UU       0.076400
     25 N1           4.6730     4.3980     3.9050 nc         1 0UU      -0.494100
     26 C19          5.3060     3.7870     2.9360 cd         1 0UU       0.153400
     27 N4           5.8500     4.4110     1.8270 ns         1 0UU      -0.046400
     28 C20          5.6470     5.7270     1.6250 c          1 0UU       0.569700
     29 O1           5.0660     6.3880     2.4650 o          1 0UU      -0.559100
     30 C21          6.1300     6.3690     0.3860 ca         1 0UU      -0.156600
     31 C22          6.6890     5.5940    -0.6330 ca         1 0UU      -0.061500
     32 C23          7.1380     6.1980    -1.7890 ca         1 0UU      -0.109000
     33 C24          7.0360     7.5710    -1.9400 ca         1 0UU      -0.077000
     34 C25          6.4840     8.3450    -0.9340 ca         1 0UU      -0.109000
     35 C26          6.0260     7.7510     0.2240 ca         1 0UU      -0.061500
     36 H1          -0.3610     0.0340    -1.0210 h1         1 0UU       0.002033
     37 H2          -0.3610    -0.9010     0.4810 h1         1 0UU       0.002033
     38 H3          -0.3610     0.8670     0.5400 h1         1 0UU       0.002033
     39 H4           4.0230    -0.6340     0.6480 hc         1 0UU       0.043700
     40 H5           3.5580     0.6720     3.3520 hc         1 0UU       0.046950
     41 H6           3.7120    -1.0700     3.0590 hc         1 0UU       0.046950
     42 H7           5.9920    -0.7170     2.1740 hc         1 0UU       0.034450
     43 H8           5.8540    -0.1060     3.8320 hc         1 0UU       0.034450
     44 H9           3.5350     2.2610     1.4320 hc         1 0UU       0.046950
     45 H10          3.6720     1.6500    -0.2260 hc         1 0UU       0.046950
     46 H11          5.9690     0.8730     0.2530 hc         1 0UU       0.034450
     47 H12          5.8150     2.6140     0.5460 hc         1 0UU       0.034450
     48 H13          7.0430     1.5070     2.3850 h1         1 0UU       0.033700
     49 H14          4.8390     0.1380     4.8460 ha         1 0UU       0.135000
     50 H15          2.5370     0.1310     7.7090 h1         1 0UU       0.012200
     51 H16          3.3530    -0.8690     6.5000 h1         1 0UU       0.012200
     52 H18          4.3430    -2.3290     7.9860 h1         1 0UU       0.011950
     53 H19          3.5500    -1.5630     9.3740 h1         1 0UU       0.011950
     54 H20          5.5640    -2.7900    10.0930 hc         1 0UU       0.018200
     55 H21          6.5500    -1.8370     8.9700 hc         1 0UU       0.018200
     56 H22          6.7070    -0.8950    11.2360 hc         1 0UU       0.011700
     57 H23          4.9420    -0.7460    11.3090 hc         1 0UU       0.011700
     58 H24          6.7760     0.6570     9.3310 hc         1 0UU       0.018200
     59 H25          5.9430     1.4150    10.7000 hc         1 0UU       0.018200
     60 H26          3.7650     0.8100     9.7170 h1         1 0UU       0.011950
     61 H27          4.7140     1.7830     8.5790 h1         1 0UU       0.011950
     62 H28          2.7910     2.5400     7.7210 ha         1 0UU       0.108000
     63 H29          3.2540     4.5600     6.4010 ha         1 0UU       0.113000
     64 H30          6.4390     3.8950     1.2030 hn         1 0UU       0.182500
     65 H31          6.7690     4.5200    -0.5160 ha         1 0UU       0.112500
     66 H32          7.5710     5.5980    -2.5800 ha         1 0UU       0.106000
     67 H33          7.3920     8.0410    -2.8480 ha         1 0UU       0.103000
     68 H34          6.4060     9.4180    -1.0590 ha         1 0UU       0.106000
     69 H35          5.5940     8.3580     1.0110 ha         1 0UU       0.112500
@<TRIPOS>BOND
     1     1     2 1   
     2     1    36 1   
     3     1    37 1   
     4     1    38 1   
     5     2     3 1   
     6     3     4 2   
     7     3     5 1   
     8     5     6 1   
     9     5     8 1   
    10     5    39 1   
    11     6     7 1   
    12     6    40 1   
    13     6    41 1   
    14     7    10 1   
    15     7    42 1   
    16     7    43 1   
    17     8     9 1   
    18     8    44 1   
    19     8    45 1   
    20     9    10 1   
    21     9    46 1   
    22     9    47 1   
    23    10    11 1   
    24    10    48 1   
    25    11    12 1   
    26    11    26 1   
    27    12    13 ar  
    28    12    24 ar  
    29    13    14 ar  
    30    13    49 1   
    31    14    15 1   
    32    14    22 ar  
    33    15    16 1   
    34    15    50 1   
    35    15    51 1   
    36    16    17 1   
    37    16    21 1   
    38    17    18 1   
    39    17    52 1   
    40    17    53 1   
    41    18    19 1   
    42    18    54 1   
    43    18    55 1   
    44    19    20 1   
    45    19    56 1   
    46    19    57 1   
    47    20    21 1   
    48    20    58 1   
    49    20    59 1   
    50    21    60 1   
    51    21    61 1   
    52    22    23 ar  
    53    22    62 1   
    54    23    24 ar  
    55    23    63 1   
    56    24    25 1   
    57    25    26 2   
    58    26    27 1   
    59    27    28 1   
    60    27    64 1   
    61    28    29 2   
    62    28    30 1   
    63    30    31 ar  
    64    30    35 ar  
    65    31    32 ar  
    66    31    65 1   
    67    32    33 ar  
    68    32    66 1   
    69    33    34 ar  
    70    33    67 1   
    71    34    35 ar  
    72    34    68 1   
    73    35    69 1   
@<TRIPOS>SUBSTRUCTURE
     1 0UU         1 TEMP              0 ****  ****    0 ROOT
