@<TRIPOS>MOLECULE
0UV
   86    90     1     0     0
SMALL
bcc


@<TRIPOS>ATOM
      1 C24          0.0000     0.0000     0.0000 c3         1 0UV      -0.015600
      2 C23          1.5300     0.0000     0.0000 c3         1 0UV       0.019700
      3 C25          2.0400     0.0000     1.4430 c3         1 0UV      -0.015600
      4 N5           2.0180    -1.1970    -0.6900 ns         1 0UV      -0.192900
      5 C22          3.2760    -1.2290    -1.1750 c          1 0UV       0.596100
      6 O2           4.0320    -0.3060    -0.9610 o          1 0UV      -0.666100
      7 C19          3.7410    -2.4140    -1.9820 c3         1 0UV      -0.063700
      8 C20          2.7870    -2.6380    -3.1560 c3         1 0UV      -0.137400
      9 C21          3.2600    -3.8390    -3.9760 c3         1 0UV      -0.025400
     10 C18          5.1500    -2.1450    -2.5150 c3         1 0UV      -0.137400
     11 C17          5.6240    -3.3470    -3.3340 c3         1 0UV      -0.025400
     12 C16          4.6690    -3.5710    -4.5080 c3         1 0UV      -0.038000
     13 N1           4.6510    -2.3780    -5.3580 na         1 0UV       0.289700
     14 C4           5.0000    -2.3300    -6.7040 ca         1 0UV      -0.194200
     15 C3           5.4370    -3.2930    -7.6030 ca         1 0UV      -0.059000
     16 C2           5.7130    -2.9390    -8.9090 ca         1 0UV      -0.078300
     17 C15          6.1870    -3.9830    -9.8850 c3         1 0UV       0.212100
     18 N4           5.0290    -4.5930   -10.5530 n3         1 0UV      -0.536600
     19 C30          5.4300    -5.7700   -11.3310 c3         1 0UV       0.148300
     20 C29          4.1850    -6.4610   -11.8910 c3         1 0UV      -0.034400
     21 C26          4.3310    -3.6120   -11.3940 c3         1 0UV       0.148300
     22 C27          3.0530    -4.2390   -11.9560 c3         1 0UV      -0.034400
     23 C28          3.4170    -5.4770   -12.7780 c3         1 0UV      -0.045700
     24 C31          2.1380    -6.1430   -13.2920 c3         1 0UV       0.171800
     25 C32          2.4950    -7.4490   -14.0070 c3         1 0UV      -0.042100
     26 C33          1.2110    -6.4440   -12.1130 c3         1 0UV      -0.042100
     27 O3           1.4780    -5.2650   -14.2050 oh         1 0UV      -0.588800
     28 C1           5.5540    -1.6270    -9.3260 ca         1 0UV      -0.094000
     29 C6           5.1200    -0.6630    -8.4380 ca         1 0UV      -0.076000
     30 C5           4.8400    -1.0080    -7.1230 ca         1 0UV      -0.214200
     31 N2           4.3980    -0.2790    -6.0240 na         1 0UV       0.171700
     32 C7           4.2850    -1.1270    -4.9680 cc         1 0UV       0.296300
     33 N3           3.8830    -0.7890    -3.7490 nf         1 0UV      -0.705100
     34 C8           3.4490     0.4540    -3.5080 c          1 0UV       0.747100
     35 O1           2.2520     0.6850    -3.4720 o          1 0UV      -0.611100
     36 C9           4.4210     1.5470    -3.2850 ca         1 0UV      -0.180600
     37 C10          5.7880     1.3090    -3.4350 ca         1 0UV      -0.027000
     38 C11          6.6900     2.3320    -3.2270 ca         1 0UV      -0.149000
     39 C12          6.2410     3.5930    -2.8700 ca         1 0UV       0.124900
     40 F1           7.1280     4.5910    -2.6670 f          1 0UV      -0.129900
     41 C13          4.8840     3.8350    -2.7200 ca         1 0UV      -0.149000
     42 C14          3.9740     2.8210    -2.9320 ca         1 0UV      -0.027000
     43 H1          -0.3610    -0.8600     0.5500 hc         1 0UV       0.009200
     44 H2          -0.3610     0.9070     0.4700 hc         1 0UV       0.009200
     45 H3          -0.3610    -0.0460    -1.0200 hc         1 0UV       0.009200
     46 H4           1.8910     0.8840    -0.5110 h1         1 0UV       0.055700
     47 H5           1.4810     0.7230     2.0230 hc         1 0UV       0.009200
     48 H6           3.0910     0.2630     1.4540 hc         1 0UV       0.009200
     49 H7           1.9100    -0.9860     1.8720 hc         1 0UV       0.009200
     50 H8           1.4350    -2.0070    -0.7600 hn         1 0UV       0.173500
     51 H9           3.7560    -3.2990    -1.3570 hc         1 0UV       0.020700
     52 H10          1.7900    -2.8300    -2.7780 hc         1 0UV       0.075450
     53 H11          2.7760    -1.7550    -3.7840 hc         1 0UV       0.075450
     54 H12          3.2740    -4.7210    -3.3460 hc         1 0UV       0.017450
     55 H13          2.5840    -3.9950    -4.8080 hc         1 0UV       0.017450
     56 H14          5.1350    -1.2640    -3.1450 hc         1 0UV       0.075450
     57 H15          5.8260    -1.9890    -1.6820 hc         1 0UV       0.075450
     58 H16          6.6210    -3.1550    -3.7130 hc         1 0UV       0.017450
     59 H17          5.6350    -4.2300    -2.7060 hc         1 0UV       0.017450
     60 H18          5.0030    -4.4260    -5.0850 h1         1 0UV       0.038700
     61 H19          5.6230    -4.3050    -7.2660 ha         1 0UV       0.116000
     62 H20          6.8290    -3.5210   -10.6250 h1         1 0UV       0.012700
     63 H21          6.7420    -4.7480    -9.3540 h1         1 0UV       0.012700
     64 H23          5.9670    -6.4600   -10.6900 h1         1 0UV       0.011200
     65 H24          6.0680    -5.4600   -12.1500 h1         1 0UV       0.011200
     66 H25          3.5510    -6.7800   -11.0720 hc         1 0UV       0.030950
     67 H26          4.4830    -7.3200   -12.4800 hc         1 0UV       0.030950
     68 H27          4.0750    -2.7450   -10.7980 h1         1 0UV       0.011200
     69 H28          4.9770    -3.3160   -12.2120 h1         1 0UV       0.011200
     70 H29          2.5490    -3.5200   -12.5900 hc         1 0UV       0.030950
     71 H30          2.4040    -4.5260   -11.1380 hc         1 0UV       0.030950
     72 H31          4.0390    -5.1840   -13.6150 hc         1 0UV       0.037700
     73 H32          2.7550    -8.2030   -13.2750 hc         1 0UV       0.015200
     74 H33          3.3370    -7.2800   -14.6670 hc         1 0UV       0.015200
     75 H34          1.6440    -7.7870   -14.5870 hc         1 0UV       0.015200
     76 H35          1.7730    -6.9350   -11.3280 hc         1 0UV       0.015200
     77 H36          0.7950    -5.5180   -11.7350 hc         1 0UV       0.015200
     78 H37          0.4080    -7.0930   -12.4420 hc         1 0UV       0.015200
     79 H38          0.8140    -5.7410   -14.6760 ho         1 0UV       0.393000
     80 H39          5.7730    -1.3570   -10.3520 ha         1 0UV       0.114000
     81 H40          4.9970     0.3620    -8.7670 ha         1 0UV       0.109000
     82 H42          6.1400     0.3240    -3.7140 ha         1 0UV       0.119500
     83 H43          7.7510     2.1480    -3.3430 ha         1 0UV       0.119500
     84 H44          4.5380     4.8230    -2.4440 ha         1 0UV       0.119500
     85 H45          2.9130     3.0110    -2.8150 ha         1 0UV       0.119500
     86 H22          4.1920     0.7010    -6.0140 hn         1 0UV       0.160700
@<TRIPOS>BOND
     1     1     2 1   
     2     1    43 1   
     3     1    44 1   
     4     1    45 1   
     5     2     3 1   
     6     2     4 1   
     7     2    46 1   
     8     3    47 1   
     9     3    48 1   
    10     3    49 1   
    11     4     5 1   
    12     4    50 1   
    13     5     6 2   
    14     5     7 1   
    15     7     8 1   
    16     7    10 1   
    17     7    51 1   
    18     8     9 1   
    19     8    52 1   
    20     8    53 1   
    21     9    12 1   
    22     9    54 1   
    23     9    55 1   
    24    10    11 1   
    25    10    56 1   
    26    10    57 1   
    27    11    12 1   
    28    11    58 1   
    29    11    59 1   
    30    12    13 1   
    31    12    60 1   
    32    13    14 1   
    33    13    32 1   
    34    14    15 ar  
    35    14    30 ar  
    36    15    16 ar  
    37    15    61 1   
    38    16    17 1   
    39    16    28 ar  
    40    17    18 1   
    41    17    62 1   
    42    17    63 1   
    43    18    19 1   
    44    18    21 1   
    45    19    20 1   
    46    19    64 1   
    47    19    65 1   
    48    20    23 1   
    49    20    66 1   
    50    20    67 1   
    51    21    22 1   
    52    21    68 1   
    53    21    69 1   
    54    22    23 1   
    55    22    70 1   
    56    22    71 1   
    57    23    24 1   
    58    23    72 1   
    59    24    25 1   
    60    24    26 1   
    61    24    27 1   
    62    25    73 1   
    63    25    74 1   
    64    25    75 1   
    65    26    76 1   
    66    26    77 1   
    67    26    78 1   
    68    27    79 1   
    69    28    29 ar  
    70    28    80 1   
    71    29    30 ar  
    72    29    81 1   
    73    30    31 1   
    74    31    32 1   
    75    31    86 1   
    76    32    33 2   
    77    33    34 1   
    78    34    35 2   
    79    34    36 1   
    80    36    37 ar  
    81    36    42 ar  
    82    37    38 ar  
    83    37    82 1   
    84    38    39 ar  
    85    38    83 1   
    86    39    40 1   
    87    39    41 ar  
    88    41    42 ar  
    89    41    84 1   
    90    42    85 1   
@<TRIPOS>SUBSTRUCTURE
     1 0UV         1 TEMP              0 ****  ****    0 ROOT
