@<TRIPOS>MOLECULE
0UV
   87    91     1     0     0
SMALL
bcc


@<TRIPOS>ATOM
      1 C24          2.5790    -1.2890     1.4540 c3         1 0UV      -0.131600
      2 C23          3.0300    -0.1950     0.4970 c3         1 0UV       0.133500
      3 C25          3.7970     0.8780     1.2580 c3         1 0UV      -0.131600
      4 N5           3.8620    -0.7500    -0.6370 ny         1 0UV      -0.677800
      5 C22          3.0720    -1.7080    -1.4820 c          1 0UV       0.552100
      6 O2           2.1150    -1.2220    -2.0740 o          1 0UV      -0.435100
      7 C19          3.4890    -3.1600    -1.5750 c3         1 0UV      -0.127700
      8 C20          4.0730    -3.4140    -2.9600 c3         1 0UV      -0.087400
      9 C21          5.4040    -2.7230    -3.1180 c3         1 0UV      -0.110400
     10 C18          4.4280    -3.6930    -0.5140 c3         1 0UV      -0.087400
     11 C17          5.8880    -3.3210    -0.6480 c3         1 0UV      -0.110400
     12 C16          6.4280    -3.2290    -2.0890 c3         1 0UV       0.081000
     13 N1           7.6610    -2.4740    -2.1560 na         1 0UV      -0.177300
     14 C4           8.9540    -3.0540    -2.2160 ca         1 0UV      -0.064200
     15 C3           9.3760    -4.3450    -2.5200 ca         1 0UV      -0.093000
     16 C2          10.7550    -4.5930    -2.5450 ca         1 0UV      -0.062300
     17 C15         11.2520    -5.9620    -2.9230 c3         1 0UV       0.207100
     18 N4          10.6110    -7.0380    -2.1750 n3         1 0UV      -0.737600
     19 C30         11.0740    -7.0930    -0.7930 c3         1 0UV       0.165300
     20 C29         10.4450    -8.2290     0.0120 c3         1 0UV      -0.072900
     21 C26         10.7320    -8.3190    -2.8650 c3         1 0UV       0.165300
     22 C27         10.1100    -9.4820    -2.0970 c3         1 0UV      -0.072900
     23 C28         10.6730    -9.5590    -0.6860 c3         1 0UV      -0.052700
     24 C31         10.0930   -10.7480     0.1030 c3         1 0UV       0.156800
     25 C32          8.6440   -10.5360     0.5250 c3         1 0UV      -0.123600
     26 C33         10.9480   -11.0360     1.3350 c3         1 0UV      -0.123600
     27 O3          10.1680   -11.8620    -0.7930 oh         1 0UV      -0.600800
     28 C1          11.6810    -3.5760    -2.2760 ca         1 0UV      -0.110000
     29 C6          11.2800    -2.2740    -1.9750 ca         1 0UV      -0.110000
     30 C5           9.9130    -2.0110    -1.9420 ca         1 0UV      -0.044200
     31 N2           9.1910    -0.8370    -1.6600 na         1 0UV      -0.295300
     32 C7           7.8110    -1.1030    -1.7760 cc         1 0UV       0.667300
     33 N3           6.7690    -0.2640    -1.6210 nf         1 0UV      -0.896100
     34 C8           6.9790     1.1040    -1.4350 c          1 0UV       0.712100
     35 O1           8.0570     1.6230    -1.0710 o          1 0UV      -0.606100
     36 C9           5.7850     1.9700    -1.6660 ca         1 0UV      -0.166600
     37 C10          4.8850     1.7170    -2.7070 ca         1 0UV      -0.088500
     38 C11          3.8180     2.5790    -2.9420 ca         1 0UV      -0.178000
     39 C12          3.6510     3.7150    -2.1260 ca         1 0UV       0.156900
     40 F1           2.6140     4.5520    -2.3430 f          1 0UV      -0.116900
     41 C13          4.5650     3.9830    -1.0870 ca         1 0UV      -0.178000
     42 C14          5.6300     3.1150    -0.8720 ca         1 0UV      -0.088500
     43 H1           2.0230    -2.0980     0.9200 hc         1 0UV       0.074533
     44 H2           1.8900    -0.8310     2.2080 hc         1 0UV       0.074533
     45 H3           3.4450    -1.7370     2.0010 hc         1 0UV       0.074533
     46 H4           2.1200     0.2700     0.0060 hx         1 0UV       0.115700
     47 H5           3.1060     1.3310     2.0130 hc         1 0UV       0.074533
     48 H6           4.1550     1.6920     0.5780 hc         1 0UV       0.074533
     49 H7           4.6740     0.4450     1.7980 hc         1 0UV       0.074533
     50 H8           4.1800     0.0410    -1.2280 hn         1 0UV       0.476800
     51 H9           2.5110    -3.7300    -1.4900 hc         1 0UV       0.116700
     52 H10          3.3600    -3.0530    -3.7490 hc         1 0UV       0.076700
     53 H11          4.1890    -4.5240    -3.0920 hc         1 0UV       0.076700
     54 H12          5.8040    -2.9260    -4.1490 hc         1 0UV       0.068450
     55 H13          5.2550    -1.6140    -3.0440 hc         1 0UV       0.068450
     56 H14          4.0650    -3.3920     0.5060 hc         1 0UV       0.076700
     57 H15          4.3470    -4.8170    -0.5600 hc         1 0UV       0.076700
     58 H16          6.4870    -4.1130    -0.1160 hc         1 0UV       0.068450
     59 H17          6.1070    -2.3750    -0.0850 hc         1 0UV       0.068450
     60 H18          6.6970    -4.2880    -2.4020 h1         1 0UV       0.085700
     61 H19          8.6650    -5.1560    -2.7340 ha         1 0UV       0.161000
     62 H20         12.3770    -5.9890    -2.8100 h1         1 0UV       0.050700
     63 H21         11.0230    -6.1100    -4.0190 h1         1 0UV       0.050700
     64 H23         12.1980    -7.2010    -0.7390 h1         1 0UV       0.033700
     65 H24         10.8040    -6.1110    -0.3110 h1         1 0UV       0.033700
     66 H25          9.3460    -8.0440     0.1320 hc         1 0UV       0.054450
     67 H26         10.9080    -8.2360     1.0320 hc         1 0UV       0.054450
     68 H27         10.2040    -8.2200    -3.8550 h1         1 0UV       0.033700
     69 H28         11.8140    -8.5680    -3.0780 h1         1 0UV       0.033700
     70 H29         10.3340   -10.4340    -2.6470 hc         1 0UV       0.054450
     71 H30          8.9970    -9.3650    -2.0570 hc         1 0UV       0.054450
     72 H31         11.7840    -9.7370    -0.7660 hc         1 0UV       0.060700
     73 H32          8.5810    -9.7420     1.3050 hc         1 0UV       0.043700
     74 H33          8.0230   -10.2400    -0.3520 hc         1 0UV       0.043700
     75 H34          8.2300   -11.4830     0.9480 hc         1 0UV       0.043700
     76 H35         11.9910   -11.2870     1.0280 hc         1 0UV       0.043700
     77 H36         10.5260   -11.9020     1.9000 hc         1 0UV       0.043700
     78 H37         10.9710   -10.1480     2.0100 hc         1 0UV       0.043700
     79 H38          9.9020   -12.6420    -0.2920 ho         1 0UV       0.403000
     80 H39         12.7590    -3.8030    -2.3060 ha         1 0UV       0.153000
     81 H40         12.0200    -1.4870    -1.7720 ha         1 0UV       0.159000
     82 H42          5.0410     0.8580    -3.3810 ha         1 0UV       0.160000
     83 H43          3.1180     2.3990    -3.7720 ha         1 0UV       0.167500
     84 H44          4.4430     4.8890    -0.4730 ha         1 0UV       0.167500
     85 H45          6.3770     3.3350    -0.0900 ha         1 0UV       0.160000
     86 H22          9.5700     0.0680    -1.4930 hn         1 0UV       0.354700
     87 H52          4.6960    -1.2090    -0.2590 hn         1 0UV       0.476800
@<TRIPOS>BOND
     1     1     2 1   
     2     1    43 1   
     3     1    44 1   
     4     1    45 1   
     5     2     3 1   
     6     2     4 1   
     7     2    46 1   
     8     3    47 1   
     9     3    48 1   
    10     3    49 1   
    11     4     5 1   
    12     4    50 1   
    13     4    87 1   
    14     5     6 2   
    15     5     7 1   
    16     7     8 1   
    17     7    10 1   
    18     7    51 1   
    19     8     9 1   
    20     8    52 1   
    21     8    53 1   
    22     9    12 1   
    23     9    54 1   
    24     9    55 1   
    25    10    11 1   
    26    10    56 1   
    27    10    57 1   
    28    11    12 1   
    29    11    58 1   
    30    11    59 1   
    31    12    13 1   
    32    12    60 1   
    33    13    14 1   
    34    13    32 1   
    35    14    15 ar  
    36    14    30 ar  
    37    15    16 ar  
    38    15    61 1   
    39    16    17 1   
    40    16    28 ar  
    41    17    18 1   
    42    17    62 1   
    43    17    63 1   
    44    18    19 1   
    45    18    21 1   
    46    19    20 1   
    47    19    64 1   
    48    19    65 1   
    49    20    23 1   
    50    20    66 1   
    51    20    67 1   
    52    21    22 1   
    53    21    68 1   
    54    21    69 1   
    55    22    23 1   
    56    22    70 1   
    57    22    71 1   
    58    23    24 1   
    59    23    72 1   
    60    24    25 1   
    61    24    26 1   
    62    24    27 1   
    63    25    73 1   
    64    25    74 1   
    65    25    75 1   
    66    26    76 1   
    67    26    77 1   
    68    26    78 1   
    69    27    79 1   
    70    28    29 ar  
    71    28    80 1   
    72    29    30 ar  
    73    29    81 1   
    74    30    31 1   
    75    31    32 1   
    76    31    86 1   
    77    32    33 2   
    78    33    34 1   
    79    34    35 2   
    80    34    36 1   
    81    36    37 ar  
    82    36    42 ar  
    83    37    38 ar  
    84    37    82 1   
    85    38    39 ar  
    86    38    83 1   
    87    39    40 1   
    88    39    41 ar  
    89    41    42 ar  
    90    41    84 1   
    91    42    85 1   
@<TRIPOS>SUBSTRUCTURE
     1 0UV         1 TEMP              0 ****  ****    0 ROOT
