@<TRIPOS>MOLECULE
0UX
   63    68     1     0     0
SMALL
bcc


@<TRIPOS>ATOM
      1 N1           0.0000     0.0000     0.0000 ns         1 0UX      -0.027400
      2 C1           1.3530     0.0000     0.0000 c          1 0UX       0.636100
      3 O1           1.9840    -0.0000    -1.0420 o          1 0UX      -0.606500
      4 C2           2.0330     0.0000     1.3010 ca         1 0UX      -0.184600
      5 C3           1.2360     0.0000     2.4720 ca         1 0UX       0.038400
      6 N2          -0.1170     0.0000     2.3480 nc         1 0UX      -0.338100
      7 C4          -0.6950     0.0060     1.1740 cd         1 0UX      -0.033200
      8 N3          -2.0680     0.0060     1.1230 nz         1 0UX       0.220400
      9 C5           3.4240    -0.0010     1.3960 ca         1 0UX       0.018000
     10 C6           4.0210    -0.0020     2.6400 ca         1 0UX      -0.255200
     11 C7           3.2360    -0.0010     3.8110 ca         1 0UX       0.127400
     12 C8           1.8430     0.0020     3.7210 ca         1 0UX       0.050700
     13 C9           1.0040     0.0020     4.9730 c3         1 0UX       0.015900
     14 C10          0.7220     1.4450     5.3970 c3         1 0UX       0.152800
     15 N4          -0.0970     1.4450     6.6170 n7         1 0UX      -0.602200
     16 C11         -0.3880     2.8170     7.0540 c3         1 0UX       0.150800
     17 N5           5.3440    -0.0020     3.0640 na         1 0UX       0.235700
     18 C12          5.3290    -0.0020     4.4290 cc         1 0UX       0.371700
     19 N6           6.4480    -0.0020     5.2310 nu         1 0UX      -0.430200
     20 C13          7.7820    -0.0030     4.6260 c3         1 0UX       0.185100
     21 N7           4.0920    -0.0010     4.8640 nd         1 0UX      -0.600100
     22 C14         -1.2400     2.7770     8.3250 c3         1 0UX      -0.059000
     23 C15         -2.5520     2.0450     8.0350 c3         1 0UX      -0.014067
     24 C16         -3.4040     2.0050     9.3060 c3         1 0UX      -0.039033
     25 C17         -3.7070     3.4340     9.7620 c3         1 0UX      -0.015733
     26 C18         -2.3960     4.1660    10.0500 c3         1 0UX      -0.039033
     27 C19         -1.5430     4.2060     8.7800 c3         1 0UX      -0.014067
     28 C20         -1.6320     3.4300    11.1530 c3         1 0UX      -0.015733
     29 C21         -0.4780     2.0410     9.4280 c3         1 0UX      -0.014067
     30 C22         -2.6410     1.2680    10.4090 c3         1 0UX      -0.015733
     31 C23         -1.3300     2.0010    10.6970 c3         1 0UX      -0.039033
     32 H1          -0.4960     0.0040    -0.8700 hn         1 0UX       0.183500
     33 H2          -2.3950     0.9360     0.9500 hn         1 0UX       0.213133
     34 H3          -2.4340    -0.3200     1.9950 hn         1 0UX       0.213133
     35 H4           4.0270     0.1270     0.5050 ha         1 0UX       0.134000
     36 H5           0.0670    -0.5070     4.7800 hc         1 0UX       0.040200
     37 H6           1.5370    -0.5100     5.7650 hc         1 0UX       0.040200
     38 H7           0.1900     1.9580     4.6050 h1         1 0UX       0.007700
     39 H8           1.6590     1.9540     5.5910 h1         1 0UX       0.007700
     40 H9           0.3890     0.9590     7.3450 hn         1 0UX       0.271800
     41 H11         -0.9290     3.3380     6.2730 h1         1 0UX       0.009200
     42 H12          0.5410     3.3360     7.2580 h1         1 0UX       0.009200
     43 H13          6.1480    -0.1410     2.4840 hn         1 0UX       0.147700
     44 H14          6.3500    -0.0310     6.2260 hn         1 0UX       0.321800
     45 H15          7.9230    -0.9180     4.0630 h1         1 0UX       0.015367
     46 H16          8.5320     0.0610     5.4050 h1         1 0UX       0.015367
     47 H17          7.8770     0.8480     3.9620 h1         1 0UX       0.015367
     48 H19         -2.3370     1.0330     7.7130 hc         1 0UX       0.017033
     49 H20         -3.0920     2.5660     7.2540 hc         1 0UX       0.017033
     50 H21         -4.3330     1.4860     9.1010 hc         1 0UX       0.025700
     51 H22         -4.3100     3.4060    10.6610 hc         1 0UX       0.017033
     52 H23         -4.2480     3.9550     8.9810 hc         1 0UX       0.017033
     53 H24         -2.6110     5.1780    10.3730 hc         1 0UX       0.025700
     54 H25         -0.6150     4.7250     8.9850 hc         1 0UX       0.017033
     55 H26         -2.0830     4.7270     7.9990 hc         1 0UX       0.017033
     56 H27         -2.2350     3.4020    12.0530 hc         1 0UX       0.017033
     57 H28         -0.7030     3.9480    11.3570 hc         1 0UX       0.017033
     58 H29          0.4510     2.5600     9.6330 hc         1 0UX       0.017033
     59 H30         -0.2630     1.0300     9.1050 hc         1 0UX       0.017033
     60 H31         -2.4260     0.2570    10.0860 hc         1 0UX       0.017033
     61 H32         -3.2440     1.2400    11.3080 hc         1 0UX       0.017033
     62 H33         -0.7890     1.4800    11.4780 hc         1 0UX       0.025700
     63 H331        -2.3740    -0.5980     0.3860 hn         1 0UX       0.213133
@<TRIPOS>BOND
     1     1     2 1   
     2     1     7 1   
     3     1    32 1   
     4     2     3 2   
     5     2     4 1   
     6     4     5 ar  
     7     4     9 ar  
     8     5     6 1   
     9     5    12 ar  
    10     6     7 2   
    11     7     8 1   
    12     8    33 1   
    13     8    34 1   
    14     8    63 1   
    15     9    10 ar  
    16     9    35 1   
    17    10    11 ar  
    18    10    17 1   
    19    11    12 ar  
    20    11    21 1   
    21    12    13 1   
    22    13    14 1   
    23    13    36 1   
    24    13    37 1   
    25    14    15 1   
    26    14    38 1   
    27    14    39 1   
    28    15    16 1   
    29    15    40 1   
    30    16    22 1   
    31    16    41 1   
    32    16    42 1   
    33    17    18 1   
    34    17    43 1   
    35    18    19 1   
    36    18    21 2   
    37    19    20 1   
    38    19    44 1   
    39    20    45 1   
    40    20    46 1   
    41    20    47 1   
    42    22    23 1   
    43    22    27 1   
    44    22    29 1   
    45    23    24 1   
    46    23    48 1   
    47    23    49 1   
    48    24    25 1   
    49    24    30 1   
    50    24    50 1   
    51    25    26 1   
    52    25    51 1   
    53    25    52 1   
    54    26    27 1   
    55    26    28 1   
    56    26    53 1   
    57    27    54 1   
    58    27    55 1   
    59    28    31 1   
    60    28    56 1   
    61    28    57 1   
    62    29    31 1   
    63    29    58 1   
    64    29    59 1   
    65    30    31 1   
    66    30    60 1   
    67    30    61 1   
    68    31    62 1   
@<TRIPOS>SUBSTRUCTURE
     1 0UX         1 TEMP              0 ****  ****    0 ROOT
