@<TRIPOS>MOLECULE
0UX
   64    69     1     0     0
SMALL
bcc


@<TRIPOS>ATOM
      1 N1           0.9610     1.8750    -0.3940 ns         1 0UX      -0.504400
      2 C1           2.2190     1.8680     0.2780 c          1 0UX       0.723100
      3 O1           3.1390     2.4960    -0.2500 o          1 0UX      -0.519500
      4 C2           2.2860     1.1050     1.5370 ca         1 0UX      -0.168600
      5 C3           1.1200     0.4500     2.0410 ca         1 0UX       0.166400
      6 N2          -0.0890     0.5200     1.3270 nc         1 0UX      -0.584100
      7 C4          -0.1010     1.1850     0.1850 cd         1 0UX       0.543800
      8 N3          -1.4070     1.1960    -0.5640 nz         1 0UX      -0.804600
      9 C5           3.5250     1.0380     2.1810 ca         1 0UX      -0.026000
     10 C6           3.5860     0.3090     3.3610 ca         1 0UX      -0.058200
     11 C7           2.4080    -0.3490     3.9150 ca         1 0UX       0.134400
     12 C8           1.1740    -0.2930     3.2460 ca         1 0UX      -0.063300
     13 C9           0.0300    -1.0850     3.7700 c3         1 0UX      -0.045100
     14 C10         -0.6770    -0.4490     4.9640 c3         1 0UX       0.114800
     15 N4           0.0500    -0.6040     6.2580 ny         1 0UX      -0.756000
     16 C11         -0.8380    -0.3310     7.4270 c3         1 0UX       0.103800
     17 N5           4.6460     0.0150     4.2230 na         1 0UX      -0.292300
     18 C12          4.1020    -0.7780     5.2780 cc         1 0UX       0.709700
     19 N6           4.8580    -1.1850     6.3570 nu         1 0UX      -0.792200
     20 C13          4.3490    -2.1750     7.2660 c3         1 0UX       0.191100
     21 N7           2.7440    -1.0040     5.1040 nd         1 0UX      -0.727100
     22 C14         -0.1440    -0.4900     8.7890 c3         1 0UX      -0.074000
     23 C15          1.0460     0.4610     8.9320 c3         1 0UX      -0.073067
     24 C16          1.6420     0.3270    10.3320 c3         1 0UX      -0.059700
     25 C17          2.1100    -1.1090    10.5480 c3         1 0UX      -0.077067
     26 C18          0.9250    -2.0590    10.4120 c3         1 0UX      -0.059700
     27 C19          0.3260    -1.9290     9.0130 c3         1 0UX      -0.073067
     28 C20         -0.1300    -1.7080    11.4550 c3         1 0UX      -0.077067
     29 C21         -1.2000    -0.1360     9.8500 c3         1 0UX      -0.073067
     30 C22          0.5880     0.6790    11.3750 c3         1 0UX      -0.077067
     31 C23         -0.5960    -0.2720    11.2420 c3         1 0UX      -0.059700
     32 H1           0.8900     2.3600    -1.2640 hn         1 0UX       0.362500
     33 H2          -2.1180     0.6660    -0.0390 hn         1 0UX       0.485800
     34 H3          -1.7280     2.1650    -0.6830 hn         1 0UX       0.485800
     35 H4           4.4050     1.5460     1.7480 ha         1 0UX       0.195000
     36 H5           0.3970    -2.1180     4.0360 hc         1 0UX       0.095700
     37 H6          -0.7590    -1.2310     2.9820 hc         1 0UX       0.095700
     38 H7          -0.8320     0.6530     4.7880 hx         1 0UX       0.100200
     39 H8          -1.6880    -0.9390     5.0830 hx         1 0UX       0.100200
     40 H9           0.4280    -1.5580     6.3320 hn         1 0UX       0.463300
     41 H11         -1.2220     0.7240     7.3240 hx         1 0UX       0.099200
     42 H12         -1.7080    -1.0460     7.3740 hx         1 0UX       0.099200
     43 H13          5.5740     0.3430     4.1380 hn         1 0UX       0.339700
     44 H14          5.8510    -1.1260     6.2680 hn         1 0UX       0.457800
     45 H15          3.3680    -1.8320     7.6920 h1         1 0UX       0.065033
     46 H16          4.2010    -3.1690     6.7640 h1         1 0UX       0.065033
     47 H17          5.0900    -2.2880     8.1030 h1         1 0UX       0.065033
     48 H19          1.8400     0.2130     8.1800 hc         1 0UX       0.042533
     49 H20          0.7130     1.5170     8.7630 hc         1 0UX       0.042533
     50 H21          2.5150     1.0270    10.4270 hc         1 0UX       0.074367
     51 H22          2.9010    -1.3720     9.7990 hc         1 0UX       0.058533
     52 H23          2.5580    -1.2100    11.5700 hc         1 0UX       0.058533
     53 H24          1.2680    -3.1170    10.5650 hc         1 0UX       0.074367
     54 H25          1.1070    -2.2090     8.2590 hc         1 0UX       0.042533
     55 H26         -0.5380    -2.6340     8.9050 hc         1 0UX       0.042533
     56 H27         -0.9990    -2.4100    11.3730 hc         1 0UX       0.058533
     57 H28          0.3050    -1.8180    12.4820 hc         1 0UX       0.058533
     58 H29         -2.0790    -0.8250     9.7520 hc         1 0UX       0.042533
     59 H30         -1.5560     0.9140     9.6940 hc         1 0UX       0.042533
     60 H31          1.0300     0.5940    12.4020 hc         1 0UX       0.058533
     61 H32          0.2480     1.7370    11.2350 hc         1 0UX       0.058533
     62 H33         -1.3760    -0.0120    12.0080 hc         1 0UX       0.074367
     63 H331        -1.2740     0.7570    -1.4850 hn         1 0UX       0.485800
     64 H42          0.8480     0.0440     6.2880 hn         1 0UX       0.463300
@<TRIPOS>BOND
     1     1     2 1   
     2     1     7 1   
     3     1    32 1   
     4     2     3 2   
     5     2     4 1   
     6     4     5 ar  
     7     4     9 ar  
     8     5     6 1   
     9     5    12 ar  
    10     6     7 2   
    11     7     8 1   
    12     8    33 1   
    13     8    34 1   
    14     8    63 1   
    15     9    10 ar  
    16     9    35 1   
    17    10    11 ar  
    18    10    17 1   
    19    11    12 ar  
    20    11    21 1   
    21    12    13 1   
    22    13    14 1   
    23    13    36 1   
    24    13    37 1   
    25    14    15 1   
    26    14    38 1   
    27    14    39 1   
    28    15    16 1   
    29    15    40 1   
    30    15    64 1   
    31    16    22 1   
    32    16    41 1   
    33    16    42 1   
    34    17    18 1   
    35    17    43 1   
    36    18    19 1   
    37    18    21 2   
    38    19    20 1   
    39    19    44 1   
    40    20    45 1   
    41    20    46 1   
    42    20    47 1   
    43    22    23 1   
    44    22    27 1   
    45    22    29 1   
    46    23    24 1   
    47    23    48 1   
    48    23    49 1   
    49    24    25 1   
    50    24    30 1   
    51    24    50 1   
    52    25    26 1   
    53    25    51 1   
    54    25    52 1   
    55    26    27 1   
    56    26    28 1   
    57    26    53 1   
    58    27    54 1   
    59    27    55 1   
    60    28    31 1   
    61    28    56 1   
    62    28    57 1   
    63    29    31 1   
    64    29    58 1   
    65    29    59 1   
    66    30    31 1   
    67    30    60 1   
    68    30    61 1   
    69    31    62 1   
@<TRIPOS>SUBSTRUCTURE
     1 0UX         1 TEMP              0 ****  ****    0 ROOT
