@<TRIPOS>MOLECULE
molecule
   63    68     1     0     0
SMALL
bcc


@<TRIPOS>ATOM
      1 N1           0.0000     0.0000     0.0000 ns         1 0UX      -0.486400
      2 C1           1.3530     0.0000     0.0000 c          1 0UX       0.727100
      3 O1           1.9840    -0.0000    -1.0420 o          1 0UX      -0.566500
      4 C2           2.0330     0.0000     1.3010 ca         1 0UX      -0.180600
      5 C3           1.2360     0.0000     2.4720 ca         1 0UX       0.118400
      6 N2          -0.1170     0.0000     2.3480 nc         1 0UX      -0.528100
      7 C4          -0.6950     0.0060     1.1740 cd         1 0UX       0.433800
      8 N3          -2.0680     0.0060     1.1230 nz         1 0UX      -0.728600
      9 C5           3.4240    -0.0010     1.3960 ca         1 0UX      -0.035000
     10 C6           4.0210    -0.0020     2.6400 ca         1 0UX      -0.081200
     11 C7           3.2360    -0.0010     3.8110 ca         1 0UX       0.162400
     12 C8           1.8430     0.0020     3.7210 ca         1 0UX       0.028700
     13 C9           1.0040     0.0020     4.9730 c3         1 0UX      -0.036100
     14 C10          0.7220     1.4450     5.3970 c3         1 0UX       0.163800
     15 N4          -0.0970     1.4450     6.6170 n7         1 0UX      -0.827200
     16 C11         -0.3880     2.8170     7.0540 c3         1 0UX       0.164800
     17 N5           5.3440    -0.0020     3.0640 na         1 0UX      -0.284300
     18 C12          5.3290    -0.0020     4.4290 cc         1 0UX       0.713700
     19 N6           6.4480    -0.0020     5.2310 nu         1 0UX      -0.857200
     20 C13          7.7820    -0.0030     4.6260 c3         1 0UX       0.214100
     21 N7           4.0920    -0.0010     4.8640 nd         1 0UX      -0.669100
     22 C14         -1.2400     2.7770     8.3250 c3         1 0UX      -0.056000
     23 C15         -2.5520     2.0450     8.0350 c3         1 0UX      -0.061067
     24 C16         -3.4040     2.0050     9.3060 c3         1 0UX      -0.065033
     25 C17         -3.7070     3.4340     9.7620 c3         1 0UX      -0.068067
     26 C18         -2.3960     4.1660    10.0500 c3         1 0UX      -0.065033
     27 C19         -1.5430     4.2060     8.7800 c3         1 0UX      -0.061067
     28 C20         -1.6320     3.4300    11.1530 c3         1 0UX      -0.068067
     29 C21         -0.4780     2.0410     9.4280 c3         1 0UX      -0.061067
     30 C22         -2.6410     1.2680    10.4090 c3         1 0UX      -0.068067
     31 C23         -1.3300     2.0010    10.6970 c3         1 0UX      -0.065033
     32 H1          -0.4960     0.0040    -0.8700 hn         1 0UX       0.338500
     33 H2          -2.3950     0.9360     0.9500 hn         1 0UX       0.473467
     34 H3          -2.4340    -0.3200     1.9950 hn         1 0UX       0.473467
     35 H4           4.0270     0.1270     0.5050 ha         1 0UX       0.168000
     36 H5           0.0670    -0.5070     4.7800 hc         1 0UX       0.073200
     37 H6           1.5370    -0.5100     5.7650 hc         1 0UX       0.073200
     38 H7           0.1900     1.9580     4.6050 h1         1 0UX       0.035200
     39 H8           1.6590     1.9540     5.5910 h1         1 0UX       0.035200
     40 H9           0.3890     0.9590     7.3450 hn         1 0UX       0.363800
     41 H11         -0.9290     3.3380     6.2730 h1         1 0UX       0.033200
     42 H12          0.5410     3.3360     7.2580 h1         1 0UX       0.033200
     43 H13          6.1480    -0.1410     2.4840 hn         1 0UX       0.320700
     44 H14          6.3500    -0.0310     6.2260 hn         1 0UX       0.484800
     45 H15          7.9230    -0.9180     4.0630 h1         1 0UX       0.050700
     46 H16          8.5320     0.0610     5.4050 h1         1 0UX       0.050700
     47 H17          7.8770     0.8480     3.9620 h1         1 0UX       0.050700
     48 H19         -2.3370     1.0330     7.7130 hc         1 0UX       0.041367
     49 H20         -3.0920     2.5660     7.2540 hc         1 0UX       0.041367
     50 H21         -4.3330     1.4860     9.1010 hc         1 0UX       0.050367
     51 H22         -4.3100     3.4060    10.6610 hc         1 0UX       0.043700
     52 H23         -4.2480     3.9550     8.9810 hc         1 0UX       0.043700
     53 H24         -2.6110     5.1780    10.3730 hc         1 0UX       0.050367
     54 H25         -0.6150     4.7250     8.9850 hc         1 0UX       0.041367
     55 H26         -2.0830     4.7270     7.9990 hc         1 0UX       0.041367
     56 H27         -2.2350     3.4020    12.0530 hc         1 0UX       0.043700
     57 H28         -0.7030     3.9480    11.3570 hc         1 0UX       0.043700
     58 H29          0.4510     2.5600     9.6330 hc         1 0UX       0.041367
     59 H30         -0.2630     1.0300     9.1050 hc         1 0UX       0.041367
     60 H31         -2.4260     0.2570    10.0860 hc         1 0UX       0.043700
     61 H32         -3.2440     1.2400    11.3080 hc         1 0UX       0.043700
     62 H33         -0.7890     1.4800    11.4780 hc         1 0UX       0.050367
     63 H331        -2.3740    -0.5980     0.3860 hn         1 0UX       0.473467
@<TRIPOS>BOND
     1    24    25 1
     2    24    30 1
     3    24    23 1
     4    25    26 1
     5    20    19 1
     6    30    31 1
     7    23    22 1
     8    19    18 1
     9    26    28 1
    10    26    27 1
    11    31    28 1
    12    31    29 1
    13    22    27 1
    14    22    29 1
    15    22    16 1
    16    18    21 2
    17    18    17 1
    18    15    16 1
    19    15    14 1
    20    21    11 1
    21    17    10 1
    22    14    13 1
    23    11    10 ar
    24    11    12 ar
    25    13    12 1
    26    10     9 ar
    27    12     5 ar
    28     9     4 ar
    29     5     4 ar
    30     5     6 1
    31     4     2 1
    32     6     7 2
    33     2     3 2
    34     2     1 1
    35     7     1 1
    36     7     8 1
    37     1    32 1
    38     8    33 1
    39     8    34 1
    40     9    35 1
    41    13    36 1
    42    13    37 1
    43    14    38 1
    44    14    39 1
    45    15    40 1
    46    16    41 1
    47    16    42 1
    48    17    43 1
    49    19    44 1
    50    20    45 1
    51    20    46 1
    52    20    47 1
    53    23    48 1
    54    23    49 1
    55    24    50 1
    56    25    51 1
    57    25    52 1
    58    26    53 1
    59    27    54 1
    60    27    55 1
    61    28    56 1
    62    28    57 1
    63    29    58 1
    64    29    59 1
    65    30    60 1
    66    30    61 1
    67    31    62 1
    68    63     8 1
@<TRIPOS>SUBSTRUCTURE
     1 0UX         1 TEMP              0 ****  ****    0 ROOT
