@<TRIPOS>MOLECULE
0V0
   46    48     1     0     0
SMALL
bcc


@<TRIPOS>ATOM
      1 C1          -0.0590     0.3710     0.1900 c3         1 0V0      -0.109100
      2 C2           1.4440     0.2650     0.1110 c3         1 0V0       0.133400
      3 O3           1.9260     0.4510     1.4600 os         1 0V0      -0.397900
      4 C4           3.2730     0.2370     1.6640 ca         1 0V0       0.191100
      5 C5           4.2030     0.1040     0.6380 ca         1 0V0      -0.235000
      6 C6           5.5640    -0.0690     0.9730 ca         1 0V0       0.226100
      7 O7           6.3940    -0.1930    -0.1020 os         1 0V0      -0.303900
      8 C8           7.8010    -0.4040     0.1890 c3         1 0V0       0.228500
      9 C9           8.4720    -0.5380    -1.0680 c1         1 0V0      -0.183100
     10 C10          9.0500    -0.6530    -2.1110 cg         1 0V0      -0.019000
     11 C11          9.7460    -0.7920    -3.3260 ca         1 0V0      -0.015000
     12 C12         10.4540     0.3260    -3.8570 ca         1 0V0      -0.090000
     13 C13         11.1390     0.2190    -5.0410 ca         1 0V0      -0.122000
     14 C14         11.1550    -1.0080    -5.7570 ca         1 0V0       0.004000
     15 C15         11.8480    -1.1750    -6.9870 ca         1 0V0      -0.233300
     16 C16         11.8080    -2.4080    -7.6150 ca         1 0V0       0.400200
     17 N17         11.1330    -3.4940    -7.1200 nb         1 0V0      -0.655000
     18 C18         10.4860    -3.3480    -5.9760 ca         1 0V0       0.429200
     19 C19         10.4510    -2.1220    -5.2290 ca         1 0V0      -0.174300
     20 C20          9.7480    -1.9980    -4.0070 ca         1 0V0      -0.054000
     21 C21          5.9750    -0.0950     2.3190 ca         1 0V0      -0.240000
     22 C22          5.0280     0.0410     3.3250 ca         1 0V0      -0.014000
     23 C23          3.6710     0.2000     3.0230 ca         1 0V0      -0.279300
     24 C24          2.6530     0.2470     4.0980 c3         1 0V0       0.204100
     25 N25          1.9300     1.5650     4.1060 nz         1 0V0      -0.847600
     26 HN25         2.5970     2.3310     4.2370 hn         1 0V0       0.458133
     27 HN2A         1.2340     1.5870     4.8540 hn         1 0V0       0.458133
     28 HN2B         1.4620     1.6930     3.1980 hn         1 0V0       0.458133
     29 H1          -0.4820     0.2450    -0.8370 hc         1 0V0       0.058033
     30 H1A         -0.3680     1.3680     0.5870 hc         1 0V0       0.058033
     31 H1B         -0.4790    -0.4230     0.8530 hc         1 0V0       0.058033
     32 H2           1.7670    -0.7430    -0.2580 h1         1 0V0       0.062700
     33 H2A          1.8810     1.0700    -0.5360 h1         1 0V0       0.062700
     34 H5           3.9170     0.1240    -0.4240 ha         1 0V0       0.179000
     35 H8           7.9040    -1.3420     0.8030 h1         1 0V0       0.067200
     36 H8A          8.1860     0.4850     0.7600 h1         1 0V0       0.067200
     37 H12         10.4390     1.2760    -3.3000 ha         1 0V0       0.143000
     38 H13         11.6880     1.0800    -5.4540 ha         1 0V0       0.147000
     39 H15         12.4030    -0.3320    -7.4200 ha         1 0V0       0.151000
     40 H16         12.3310    -2.5880    -8.5720 h4         1 0V0       0.032100
     41 H18          9.9480    -4.2340    -5.5910 h4         1 0V0       0.026100
     42 H20          9.2080    -2.8720    -3.6110 ha         1 0V0       0.144000
     43 H21          7.0340    -0.2270     2.5840 ha         1 0V0       0.163000
     44 H22          5.3530     0.0070     4.3780 ha         1 0V0       0.146000
     45 H24          3.1190     0.1050     5.1150 hx         1 0V0       0.106700
     46 H24A         1.8680    -0.5490     3.9270 hx         1 0V0       0.106700
@<TRIPOS>BOND
     1     1     2 1   
     2     1    29 1   
     3     1    30 1   
     4     1    31 1   
     5     2     3 1   
     6     2    32 1   
     7     2    33 1   
     8     3     4 1   
     9     4     5 ar  
    10     4    23 ar  
    11     5     6 ar  
    12     5    34 1   
    13     6     7 1   
    14     6    21 ar  
    15     7     8 1   
    16     8     9 1   
    17     8    35 1   
    18     8    36 1   
    19     9    10 3   
    20    10    11 1   
    21    11    12 ar  
    22    11    20 ar  
    23    12    13 ar  
    24    12    37 1   
    25    13    14 ar  
    26    13    38 1   
    27    14    15 ar  
    28    14    19 ar  
    29    15    16 ar  
    30    15    39 1   
    31    16    17 ar  
    32    16    40 1   
    33    17    18 ar  
    34    18    19 ar  
    35    18    41 1   
    36    19    20 ar  
    37    20    42 1   
    38    21    22 ar  
    39    21    43 1   
    40    22    23 ar  
    41    22    44 1   
    42    23    24 1   
    43    24    25 1   
    44    24    45 1   
    45    24    46 1   
    46    25    26 1   
    47    25    27 1   
    48    25    28 1   
@<TRIPOS>SUBSTRUCTURE
     1 0V0         1 TEMP              0 ****  ****    0 ROOT
