@<TRIPOS>MOLECULE
molecule
   46    48     1     0     0
SMALL
bcc


@<TRIPOS>ATOM
      1 C1           0.0000     0.0000     0.0000 c3         1 0V0      -0.613100
      2 C2           1.5300     0.0000     0.0000 c3         1 0V0       0.205400
      3 O3           2.0060     0.0000     1.3490 os         1 0V0      -0.344900
      4 C4           3.3530     0.0000     1.5260 ca         1 0V0       0.163100
      5 C5           4.1990    -0.0000     0.4290 ca         1 0V0      -0.269000
      6 C6           5.5730     0.0010     0.6140 ca         1 0V0       0.279100
      7 O7           6.4040     0.0010    -0.4620 os         1 0V0      -0.399900
      8 C8           7.8090     0.0020    -0.1960 c3         1 0V0      -0.047500
      9 C9           8.5490     0.0030    -1.4680 c1         1 0V0      -0.273100
     10 C10          9.1210    -0.0030    -2.4930 cg         1 0V0      -0.044000
     11 C11         10.2170    -0.4490    -3.8390 ca         1 0V0       0.078000
     12 C12         11.5660     0.0810    -3.7100 ca         1 0V0      -0.075000
     13 C13         12.3570    -0.1990    -4.6140 ca         1 0V0      -0.091000
     14 C14         11.8660    -1.0150    -5.6940 ca         1 0V0      -0.017000
     15 C15         12.8380    -1.3880    -6.8520 ca         1 0V0      -0.213300
     16 C16         12.3920    -2.1060    -7.7940 ca         1 0V0       0.342200
     17 N17         10.9300    -2.7320    -8.0180 nb         1 0V0      -0.571000
     18 C18         10.4060    -2.1460    -6.7580 ca         1 0V0       0.330200
     19 C19         10.6310    -1.5350    -5.8690 ca         1 0V0      -0.089300
     20 C20          9.7420    -1.1410    -4.7230 ca         1 0V0      -0.106000
     21 C21          6.0980     0.0020     1.8980 ca         1 0V0      -0.251000
     22 C22          5.2540     0.0010     2.9910 ca         1 0V0      -0.022000
     23 C23          3.8840     0.0060     2.8090 ca         1 0V0      -0.278300
     24 C24          2.9650     0.0130     4.0050 c3         1 0V0       0.170100
     25 N25          2.4760    -1.3490     4.2530 nz         1 0V0      -0.769600
     26 HN25         1.8140    -1.4850     4.9910 hn         1 0V0       0.421133
     27 HN2A         1.8730    -1.7520     3.5630 hn         1 0V0       0.421133
     28 HN2B         3.0230    -2.1570     4.4760 hn         1 0V0       0.421133
     29 H1          -0.8380     0.3500    -0.5900 hc         1 0V0       0.219033
     30 H1A          0.1130     1.0490     0.2450 hc         1 0V0       0.219033
     31 H1B         -0.1740    -0.7160    -0.7940 hc         1 0V0       0.219033
     32 H2           1.8940     0.7080    -0.7350 h1         1 0V0       0.026200
     33 H2A          2.0510    -0.8820    -0.3540 h1         1 0V0       0.026200
     34 H5           3.4500     0.3430    -0.2750 ha         1 0V0       0.165000
     35 H8           7.6840    -1.0260     0.1220 h1         1 0V0       0.244200
     36 H8A          7.7750     0.7190    -1.0080 h1         1 0V0       0.244200
     37 H12         11.5950     0.6380    -2.7810 ha         1 0V0       0.161000
     38 H13         13.4390    -0.1550    -4.6500 ha         1 0V0       0.165000
     39 H15         13.5550    -0.5890    -6.9960 ha         1 0V0       0.154000
     40 H16         12.7830    -2.1750    -8.8020 h4         1 0V0       0.014100
     41 H18          9.4380    -2.4780    -7.1140 h4         1 0V0       0.001100
     42 H20          8.8550    -1.7440    -4.8810 ha         1 0V0       0.166000
     43 H21          7.1680     0.1720     1.8840 ha         1 0V0       0.191000
     44 H22          5.7950    -0.2520     3.8950 ha         1 0V0       0.152000
     45 H24          2.0040    -0.0580     3.5100 hx         1 0V0       0.139200
     46 H24A         3.0690     1.0720     4.2070 hx         1 0V0       0.139200
@<TRIPOS>BOND
     1     1     2 1
     2     1    29 1
     3     1    30 1
     4     1    31 1
     5     2     3 1
     6     2    32 1
     7     2    33 1
     8     3     4 1
     9     4     5 ar
    10     4    23 ar
    11     5     6 ar
    12     5    34 1
    13     6     7 1
    14     6    21 ar
    15     7     8 1
    16     8     9 1
    17     8    35 1
    18     8    36 1
    19     9    10 3
    20    10    11 1
    21    11    12 ar
    22    11    20 ar
    23    12    13 ar
    24    12    37 1
    25    13    14 ar
    26    13    38 1
    27    14    15 ar
    28    14    19 ar
    29    15    16 ar
    30    15    39 1
    31    16    17 ar
    32    16    40 1
    33    17    18 ar
    34    18    19 ar
    35    18    41 1
    36    19    20 ar
    37    20    42 1
    38    21    22 ar
    39    21    43 1
    40    22    23 ar
    41    22    44 1
    42    23    24 1
    43    24    25 1
    44    24    45 1
    45    24    46 1
    46    25    26 1
    47    25    27 1
    48    25    28 1
@<TRIPOS>SUBSTRUCTURE
     1 0V0         1 TEMP              0 ****  ****    0 ROOT
