@<TRIPOS>MOLECULE
0V3
   66    70     1     0     0
SMALL
bcc


@<TRIPOS>ATOM
      1 N2           0.0000     0.0000     0.0000 nc         1 0V3      -0.348100
      2 C1           1.3580     0.0000     0.0000 ca         1 0V3       0.045400
      3 C2           2.0440     0.0000     1.2400 ca         1 0V3      -0.185600
      4 C3           3.4380     0.0000     1.2750 ca         1 0V3       0.025000
      5 C4           4.1470     0.0010     0.0920 ca         1 0V3      -0.249200
      6 N3           5.5030     0.0000    -0.2100 na         1 0V3       0.204700
      7 C5           5.6150     0.0010    -1.5700 cc         1 0V3       0.353700
      8 N4           6.8030     0.0020    -2.2640 nu         1 0V3      -0.481200
      9 C6           8.0770     0.0010    -1.5380 c3         1 0V3       0.184100
     10 N5           4.4240     0.0020    -2.1170 nd         1 0V3      -0.603100
     11 C7           3.4730     0.0010    -1.1480 ca         1 0V3       0.129400
     12 C8           2.0790     0.0010    -1.1870 ca         1 0V3       0.009700
     13 C9           1.3590     0.0010    -2.5110 c3         1 0V3       0.026900
     14 C10          1.1150    -1.4410    -2.9590 c3         1 0V3       0.150800
     15 N6           0.4130    -1.4410    -4.2500 n7         1 0V3      -0.627200
     16 C11          0.1610    -2.8110    -4.7130 c3         1 0V3       0.104800
     17 C12         -0.5700    -2.7700    -6.0560 c3         1 0V3       0.064300
     18 C13         -1.9550    -2.1470    -5.8640 c3         1 0V3      -0.053400
     19 C14         -2.6860    -2.1060    -7.2080 c3         1 0V3      -0.071900
     20 C15         -2.8380    -3.5290    -7.7500 c3         1 0V3       0.055400
     21 C16         -3.5410    -3.4890    -9.0420 c1         1 0V3      -0.143100
     22 C17         -4.1050    -3.4370   -10.0710 cg         1 0V3      -0.116000
     23 C23         -1.4530    -4.1520    -7.9420 c3         1 0V3      -0.071900
     24 C24         -0.7220    -4.1930    -6.5980 c3         1 0V3      -0.053400
     25 C25          1.2470    -0.0010     2.4740 c          1 0V3       0.629100
     26 O1           1.7790    -0.0020     3.5680 o          1 0V3      -0.603500
     27 N8          -0.1000    -0.0020     2.3490 ns         1 0V3      -0.053400
     28 C26         -0.6850    -0.0010     1.1140 cd         1 0V3      -0.008200
     29 N9          -2.0550    -0.0020     1.0400 nz         1 0V3       0.216400
     30 H2           3.9960     0.0780     2.2000 ha         1 0V3       0.135000
     31 H3           6.1920    -0.5020     0.3150 hn         1 0V3       0.143700
     32 H4           6.5480     0.2910    -3.1870 hn         1 0V3       0.325800
     33 H5           7.7970     0.0860    -0.4950 h1         1 0V3       0.042367
     34 H6           7.9320    -1.0470    -1.7710 h1         1 0V3       0.042367
     35 H7           8.8160     0.2000    -2.3040 h1         1 0V3       0.042367
     36 H9           0.4340     0.4930    -2.2350 hc         1 0V3       0.059700
     37 H10          2.1980     0.4420    -3.0350 hc         1 0V3       0.059700
     38 H11          1.9880    -2.0170    -3.2400 h1         1 0V3       0.025200
     39 H12          0.3210    -1.9390    -2.4160 h1         1 0V3       0.025200
     40 H13          0.9040    -1.1770    -5.0810 hn         1 0V3       0.265800
     41 H15          0.8940    -3.5260    -4.3580 h1         1 0V3      -0.003300
     42 H16         -0.3420    -3.1550    -3.8170 h1         1 0V3      -0.003300
     43 H17         -0.0040    -2.1760    -6.7620 hc         1 0V3       0.032700
     44 H18         -2.8700    -2.5540    -5.4520 hc         1 0V3       0.044200
     45 H19         -1.9390    -1.0760    -6.0250 hc         1 0V3       0.044200
     46 H20         -3.5580    -1.6060    -6.8040 hc         1 0V3       0.026950
     47 H21         -2.2450    -1.5450    -8.0230 hc         1 0V3       0.026950
     48 H22         -3.4120    -4.1250    -7.0510 hc         1 0V3       0.029700
     49 H24         -1.7110    -5.0330    -8.5170 hc         1 0V3       0.026950
     50 H25         -1.0230    -3.4790    -8.6740 hc         1 0V3       0.026950
     51 H26          0.0280    -4.9370    -6.8360 hc         1 0V3       0.044200
     52 H27         -1.5360    -4.5180    -5.9610 hc         1 0V3       0.044200
     53 H28         -2.4560     0.5980     0.3460 hn         1 0V3       0.216467
     54 H29         -2.4280     0.1580     1.9550 hn         1 0V3       0.216467
     55 C18         -4.6690    -4.1280   -11.4300 ca         1 0V3      -0.046300
     56 C19         -4.3330    -3.2030   -12.5700 ca         1 0V3       0.444200
     57 N1          -4.7780    -3.6930   -13.8550 nb         1 0V3      -0.687000
     58 C21         -5.5110    -5.0330   -13.9430 ca         1 0V3       0.363200
     59 C22         -6.2180    -5.4610   -12.8500 ca         1 0V3      -0.159300
     60 C27         -5.3280    -5.3000   -11.6370 ca         1 0V3      -0.041000
     61 H8          -3.5150    -2.4940   -12.5230 h4         1 0V3       0.003100
     62 H14         -5.8220    -4.9020   -14.9720 h4         1 0V3      -0.009900
     63 H23         -7.0070    -6.1300   -13.1720 ha         1 0V3       0.130000
     64 H30         -5.0120    -6.1790   -11.0880 ha         1 0V3       0.117000
     65 H1          -0.5420    -0.0140     3.2470 hn         1 0V3       0.202500
     66 H93         -2.2220    -0.9860     0.9710 hn         1 0V3       0.216467
@<TRIPOS>BOND
     1     1     2 1   
     2     1    28 2   
     3     2     3 ar  
     4     2    12 ar  
     5     3     4 ar  
     6     3    25 1   
     7     4     5 ar  
     8     4    30 1   
     9     5     6 1   
    10     5    11 ar  
    11     6     7 1   
    12     6    31 1   
    13     7     8 1   
    14     7    10 2   
    15     8     9 1   
    16     8    32 1   
    17     9    33 1   
    18     9    34 1   
    19     9    35 1   
    20    10    11 1   
    21    11    12 ar  
    22    12    13 1   
    23    13    14 1   
    24    13    36 1   
    25    13    37 1   
    26    14    15 1   
    27    14    38 1   
    28    14    39 1   
    29    15    16 1   
    30    15    40 1   
    31    16    17 1   
    32    16    41 1   
    33    16    42 1   
    34    17    18 1   
    35    17    24 1   
    36    17    43 1   
    37    18    19 1   
    38    18    44 1   
    39    18    45 1   
    40    19    20 1   
    41    19    46 1   
    42    19    47 1   
    43    20    21 1   
    44    20    23 1   
    45    20    48 1   
    46    21    22 3   
    47    22    55 1   
    48    23    24 1   
    49    23    49 1   
    50    23    50 1   
    51    24    51 1   
    52    24    52 1   
    53    25    26 2   
    54    25    27 1   
    55    27    28 1   
    56    27    65 1   
    57    28    29 1   
    58    29    53 1   
    59    29    54 1   
    60    29    66 1   
    61    55    56 ar  
    62    55    60 ar  
    63    56    57 ar  
    64    56    61 1   
    65    57    58 ar  
    66    58    59 ar  
    67    58    62 1   
    68    59    60 ar  
    69    59    63 1   
    70    60    64 1   
@<TRIPOS>SUBSTRUCTURE
     1 0V3         1 TEMP              0 ****  ****    0 ROOT
