@<TRIPOS>MOLECULE
molecule
   66    70     1     0     0
SMALL
bcc


@<TRIPOS>ATOM
      1 N2           0.0000     0.0000     0.0000 nc         1 0V3      -0.530100
      2 C1           1.3580     0.0000     0.0000 ca         1 0V3       0.119400
      3 C2           2.0440     0.0000     1.2400 ca         1 0V3      -0.182600
      4 C3           3.4380     0.0000     1.2750 ca         1 0V3      -0.029000
      5 C4           4.1470     0.0010     0.0920 ca         1 0V3      -0.093200
      6 N3           5.5030     0.0000    -0.2100 na         1 0V3      -0.269300
      7 C5           5.6150     0.0010    -1.5700 cc         1 0V3       0.652700
      8 N4           6.8030     0.0020    -2.2640 nu         1 0V3      -0.855200
      9 C6           8.0770     0.0010    -1.5380 c3         1 0V3       0.197100
     10 N5           4.4240     0.0020    -2.1170 nd         1 0V3      -0.679100
     11 C7           3.4730     0.0010    -1.1480 ca         1 0V3       0.160400
     12 C8           2.0790     0.0010    -1.1870 ca         1 0V3      -0.003300
     13 C9           1.3590     0.0010    -2.5110 c3         1 0V3      -0.018100
     14 C10          1.1150    -1.4410    -2.9590 c3         1 0V3       0.160800
     15 N6           0.4130    -1.4410    -4.2500 n7         1 0V3      -0.824200
     16 C11          0.1610    -2.8110    -4.7130 c3         1 0V3       0.103800
     17 C12         -0.5700    -2.7700    -6.0560 c3         1 0V3       0.026300
     18 C13         -1.9550    -2.1470    -5.8640 c3         1 0V3      -0.093400
     19 C14         -2.6860    -2.1060    -7.2080 c3         1 0V3      -0.111900
     20 C15         -2.8380    -3.5290    -7.7500 c3         1 0V3      -0.005600
     21 C16         -3.5410    -3.4890    -9.0420 c1         1 0V3      -0.131100
     22 C17         -4.1050    -3.4370   -10.0710 cg         1 0V3      -0.116000
     23 C23         -1.4530    -4.1520    -7.9420 c3         1 0V3      -0.111900
     24 C24         -0.7220    -4.1930    -6.5980 c3         1 0V3      -0.093400
     25 C25          1.2470    -0.0010     2.4740 c          1 0V3       0.717100
     26 O1           1.7790    -0.0020     3.5680 o          1 0V3      -0.566500
     27 N8          -0.1000    -0.0020     2.3490 ns         1 0V3      -0.504400
     28 C26         -0.6850    -0.0010     1.1140 cd         1 0V3       0.449800
     29 N9          -2.0550    -0.0020     1.0400 nz         1 0V3      -0.728600
     30 H2           3.9960     0.0780     2.2000 ha         1 0V3       0.170000
     31 H3           6.1920    -0.5020     0.3150 hn         1 0V3       0.303700
     32 H4           6.5480     0.2910    -3.1870 hn         1 0V3       0.466800
     33 H5           7.7970     0.0860    -0.4950 h1         1 0V3       0.083700
     34 H6           7.9320    -1.0470    -1.7710 h1         1 0V3       0.083700
     35 H7           8.8160     0.2000    -2.3040 h1         1 0V3       0.083700
     36 H9           0.4340     0.4930    -2.2350 hc         1 0V3       0.091700
     37 H10          2.1980     0.4420    -3.0350 hc         1 0V3       0.091700
     38 H11          1.9880    -2.0170    -3.2400 h1         1 0V3       0.052700
     39 H12          0.3210    -1.9390    -2.4160 h1         1 0V3       0.052700
     40 H13          0.9040    -1.1770    -5.0810 hn         1 0V3       0.346800
     41 H15          0.8940    -3.5260    -4.3580 h1         1 0V3       0.021200
     42 H16         -0.3420    -3.1550    -3.8170 h1         1 0V3       0.021200
     43 H17         -0.0040    -2.1760    -6.7620 hc         1 0V3       0.061700
     44 H18         -2.8700    -2.5540    -5.4520 hc         1 0V3       0.068200
     45 H19         -1.9390    -1.0760    -6.0250 hc         1 0V3       0.068200
     46 H20         -3.5580    -1.6060    -6.8040 hc         1 0V3       0.051950
     47 H21         -2.2450    -1.5450    -8.0230 hc         1 0V3       0.051950
     48 H22         -3.4120    -4.1250    -7.0510 hc         1 0V3       0.060700
     49 H24         -1.7110    -5.0330    -8.5170 hc         1 0V3       0.051950
     50 H25         -1.0230    -3.4790    -8.6740 hc         1 0V3       0.051950
     51 H26          0.0280    -4.9370    -6.8360 hc         1 0V3       0.068200
     52 H27         -1.5360    -4.5180    -5.9610 hc         1 0V3       0.068200
     53 H28         -2.4560     0.5980     0.3460 hn         1 0V3       0.475800
     54 H29         -2.4280     0.1580     1.9550 hn         1 0V3       0.475800
     55 C18         -4.6690    -4.1280   -11.4300 ca         1 0V3      -0.076300
     56 C19         -4.3330    -3.2030   -12.5700 ca         1 0V3       0.405200
     57 N1          -4.7780    -3.6930   -13.8550 nb         1 0V3      -0.695000
     58 C21         -5.5110    -5.0330   -13.9430 ca         1 0V3       0.344200
     59 C22         -6.2180    -5.4610   -12.8500 ca         1 0V3      -0.194300
     60 C27         -5.3280    -5.3000   -11.6370 ca         1 0V3      -0.071000
     61 H8          -3.5150    -2.4940   -12.5230 h4         1 0V3       0.052100
     62 H14         -5.8220    -4.9020   -14.9720 h4         1 0V3       0.029100
     63 H23         -7.0070    -6.1300   -13.1720 ha         1 0V3       0.162000
     64 H30         -5.0120    -6.1790   -11.0880 ha         1 0V3       0.152000
     65 H1          -0.5420    -0.0140     3.2470 hn         1 0V3       0.351500
     66 H93         -2.2220    -0.9860     0.9710 hn         1 0V3       0.475800
@<TRIPOS>BOND
     1    22    21 3
     2    21    20 1
     3     9     8 1
     4    19    20 1
     5    19    18 1
     6    20    23 1
     7     8     7 1
     8    18    17 1
     9    23    24 1
    10    17    24 1
    11    17    16 1
    12     7    10 2
    13     7     6 1
    14    15    16 1
    15    15    14 1
    16    10    11 1
    17     6     5 1
    18    14    13 1
    19    11     5 ar
    20    11    12 ar
    21    13    12 1
    22     5     4 ar
    23    12     2 ar
    24     4     3 ar
    25     2     3 ar
    26     2     1 1
    27     3    25 1
    28     1    28 2
    29    25    26 2
    30    25    27 1
    31    28    27 1
    32    28    29 1
    33     4    30 1
    34     6    31 1
    35     8    32 1
    36     9    33 1
    37     9    34 1
    38     9    35 1
    39    13    36 1
    40    13    37 1
    41    14    38 1
    42    14    39 1
    43    15    40 1
    44    16    41 1
    45    16    42 1
    46    17    43 1
    47    18    44 1
    48    18    45 1
    49    19    46 1
    50    19    47 1
    51    20    48 1
    52    23    49 1
    53    23    50 1
    54    24    51 1
    55    24    52 1
    56    29    53 1
    57    29    54 1
    58    22    55 1
    59    55    56 ar
    60    56    57 ar
    61    57    58 ar
    62    58    59 ar
    63    59    60 ar
    64    60    55 ar
    65    56    61 1
    66    58    62 1
    67    59    63 1
    68    60    64 1
    69    27    65 1
    70    66    29 1
@<TRIPOS>SUBSTRUCTURE
     1 0V3         1 TEMP              0 ****  ****    0 ROOT
