@<TRIPOS>MOLECULE
0V5
   14    13     1     0     0
SMALL
bcc


@<TRIPOS>ATOM
      1 C1           0.0000     0.0000     0.0000 c          1 0V5       0.980600
      2 O1          -0.6040    -0.9480    -0.4420 o          1 0V5      -0.957300
      3 O2'         -0.6710     1.0510     0.4960 o          1 0V5      -0.957300
      4 C2           1.5070     0.0000     0.0000 c3         1 0V5       0.165100
      5 C3           2.0180     0.0000     1.4430 c3         1 0V5      -0.008100
      6 O2           1.9830    -1.1670    -0.6730 os         1 0V5      -0.454200
      7 P            2.9120    -1.1030    -1.9870 p5         1 0V5       0.691900
      8 O1P          4.1110    -0.2840    -1.7050 o          1 0V5      -0.786500
      9 O2P          3.3640    -2.5930    -2.3980 o          1 0V5      -0.786500
     10 O3P          2.0840    -0.4420    -3.1990 o          1 0V5      -0.786500
     11 H2           1.8680     0.8840    -0.5110 h1         1 0V5      -0.001300
     12 H3           1.5960    -0.8440     1.9750 hc         1 0V5      -0.033967
     13 H4           1.7200     0.9200     1.9310 hc         1 0V5      -0.033967
     14 H5           3.0980    -0.0760     1.4430 hc         1 0V5      -0.033967
@<TRIPOS>BOND
     1     1     2 1   
     2     1     3 1   
     3     1     4 1   
     4     4     5 1   
     5     4     6 1   
     6     4    11 1   
     7     5    12 1   
     8     5    13 1   
     9     5    14 1   
    10     6     7 1   
    11     7     8 1   
    12     7     9 1   
    13     7    10 1   
@<TRIPOS>SUBSTRUCTURE
     1 0V5         1 TEMP              0 ****  ****    0 ROOT
