@<TRIPOS>MOLECULE
0V5
   14    13     1     0     0
SMALL
bcc


@<TRIPOS>ATOM
      1 C1          -0.1680    -0.1470     0.2730 c          1 0V5       0.894600
      2 O1          -0.9370     0.8710     0.1820 o          1 0V5      -0.922800
      3 O2'         -0.6060    -1.1970     0.8470 o          1 0V5      -0.922800
      4 C2           1.3080    -0.0070    -0.1900 c3         1 0V5       0.152100
      5 C3           2.1390    -0.0700     1.1070 c3         1 0V5      -0.113100
      6 O2           1.7050    -0.9630    -1.1040 os         1 0V5      -0.568200
      7 P            2.8950    -0.5240    -2.2670 p5         1 0V5       1.327900
      8 O1P          2.3820     0.7100    -2.9700 o          1 0V5      -0.955167
      9 O2P          4.1330    -0.2760    -1.4300 o          1 0V5      -0.955167
     10 O3P          2.9740    -1.7570    -3.1390 o          1 0V5      -0.955167
     11 H2           1.4380     1.0180    -0.6500 h1         1 0V5       0.014700
     12 H3           1.8090     0.7350     1.8080 hc         1 0V5       0.000700
     13 H4           1.9780    -1.0580     1.5980 hc         1 0V5       0.000700
     14 H5           3.2240     0.0550     0.8830 hc         1 0V5       0.000700
@<TRIPOS>BOND
     1     1     2 1   
     2     1     3 1   
     3     1     4 1   
     4     4     5 1   
     5     4     6 1   
     6     4    11 1   
     7     5    12 1   
     8     5    13 1   
     9     5    14 1   
    10     6     7 1   
    11     7     8 1   
    12     7     9 1   
    13     7    10 1   
@<TRIPOS>SUBSTRUCTURE
     1 0V5         1 TEMP              0 ****  ****    0 ROOT
