@<TRIPOS>MOLECULE
0V6
   42    44     1     0     0
SMALL
bcc


@<TRIPOS>ATOM
      1 C2           0.0000     0.0000     0.0000 cc         1 0V6      -0.050400
      2 S1           1.7580     0.0000     0.0000 ss         1 0V6      -0.213800
      3 C3          -0.4520     0.0060     1.2580 cd         1 0V6      -0.025600
      4 C4           0.5270     0.0110     2.2300 cd         1 0V6      -0.131000
      5 C5           1.7900     0.0000     1.7590 cc         1 0V6       0.095900
      6 C6           0.0140    -0.0010    -2.4850 c3         1 0V6      -0.123400
      7 C7           0.6210     1.3580    -2.6930 c          1 0V6       0.614500
      8 N8           0.0920     2.4740    -2.1730 n          1 0V6      -0.042300
      9 C9          -1.0220     2.4220    -1.3530 c2         1 0V6       0.401800
     10 N10         -1.6970     1.2170    -1.2580 nu         1 0V6      -0.498200
     11 C11         -0.8670    -0.0010    -1.2330 c3         1 0V6       0.230500
     12 C12         -1.7650    -1.2400    -1.2320 c3         1 0V6      -0.016100
     13 Cl          -2.1450     0.0070     1.6400 cl         1 0V6       0.016600
     14 C14          3.0130     0.0030     2.5900 ca         1 0V6      -0.130300
     15 C15          2.9210     0.0160     3.9840 ca         1 0V6      -0.053000
     16 C16          4.1070     0.0170     4.7220 ca         1 0V6      -0.044300
     17 C17          5.3270     0.0050     4.0450 ca         1 0V6       0.418200
     18 N18          5.3690    -0.0080     2.7280 nb         1 0V6      -0.572000
     19 C19          4.2750    -0.0150     1.9950 ca         1 0V6       0.413200
     20 O21          1.6320     1.4470    -3.3570 o          1 0V6      -0.664500
     21 C22          0.7040     3.7700    -2.4760 c3         1 0V6       0.058300
     22 C23          4.0720     0.0310     6.1540 cg         1 0V6      -0.144000
     23 C24          4.0600     0.0320     7.3290 c1         1 0V6      -0.108100
     24 C25          4.0640     0.2270     8.7620 c3         1 0V6       0.130000
     25 H1           0.3580     0.0160     3.3000 ha         1 0V6       0.139000
     26 H2          -0.2870    -0.3350    -3.4710 hc         1 0V6       0.071200
     27 H3           0.7800    -0.5840    -1.9880 hc         1 0V6       0.071200
     28 H4          -2.6160     1.1850    -0.8620 hn         1 0V6       0.314800
     29 H5          -2.4190    -1.2130    -2.0960 hc         1 0V6       0.023367
     30 H6          -2.3620    -1.2530    -0.3280 hc         1 0V6       0.023367
     31 H7          -1.1510    -2.1320    -1.2730 hc         1 0V6       0.023367
     32 H11          1.9510    -0.0270     4.4640 ha         1 0V6       0.122000
     33 H12          6.2560     0.0060     4.6020 h4         1 0V6      -0.011900
     34 H13          4.3650    -0.0820     0.9170 h4         1 0V6      -0.006900
     35 H14         -0.9220     4.3340    -0.7740 hn         1 0V6       0.339400
     36 H15          1.3480     3.6720    -3.3410 h1         1 0V6       0.025700
     37 H16         -0.0730     4.4960    -2.6850 h1         1 0V6       0.025700
     38 H17          1.2880     4.1010    -1.6260 h1         1 0V6       0.025700
     39 H18          4.3400     1.2500     8.9860 hc         1 0V6       0.012700
     40 H19          4.7790    -0.4480     9.2160 hc         1 0V6       0.012700
     41 H20          3.0760     0.0250     9.1560 hc         1 0V6       0.012700
     42 N20         -1.4220     3.4710    -0.6940 n2         1 0V6      -0.785100
@<TRIPOS>BOND
     1     1     2 1   
     2     1     3 2   
     3     1    11 1   
     4     2     5 1   
     5     3     4 1   
     6     3    13 1   
     7     4     5 2   
     8     4    25 1   
     9     5    14 1   
    10     6     7 1   
    11     6    11 1   
    12     6    26 1   
    13     6    27 1   
    14     7     8 1   
    15     7    20 2   
    16     8     9 1   
    17     8    21 1   
    18     9    10 1   
    19     9    42 2   
    20    10    11 1   
    21    10    28 1   
    22    11    12 1   
    23    12    29 1   
    24    12    30 1   
    25    12    31 1   
    26    14    15 ar  
    27    14    19 ar  
    28    15    16 ar  
    29    15    32 1   
    30    16    17 ar  
    31    16    22 1   
    32    17    18 ar  
    33    17    33 1   
    34    18    19 ar  
    35    19    34 1   
    36    21    36 1   
    37    21    37 1   
    38    21    38 1   
    39    22    23 3   
    40    23    24 1   
    41    24    39 1   
    42    24    40 1   
    43    24    41 1   
    44    35    42 1   
@<TRIPOS>SUBSTRUCTURE
     1 0V6         1 TEMP              0 ****  ****    0 ROOT
