@<TRIPOS>MOLECULE
0V6
   42    44     1     0     0
SMALL
bcc


@<TRIPOS>ATOM
      1 C2           0.0640    -0.1010     0.0250 cc         1 0V6      -0.147400
      2 S1           1.7430    -0.0760    -0.0960 ss         1 0V6       0.052200
      3 C3          -0.3200    -0.0770     1.3580 cd         1 0V6      -0.006600
      4 C4           0.8000    -0.0390     2.2490 cd         1 0V6      -0.137000
      5 C5           2.0000    -0.0320     1.5630 cc         1 0V6      -0.046100
      6 C6          -1.7430    -1.3490    -1.1700 c3         1 0V6      -0.151400
      7 C7          -1.0400    -2.6280    -1.5500 c          1 0V6       0.707500
      8 N8           0.0980    -2.5610    -2.3610 n          1 0V6      -0.398300
      9 C9           0.4950    -1.3290    -2.9780 c2         1 0V6       0.659800
     10 N10         -0.0600    -0.1170    -2.4470 nu         1 0V6      -0.871200
     11 C11         -0.8190    -0.1170    -1.2000 c3         1 0V6       0.309500
     12 C12         -1.7100     1.1450    -1.1620 c3         1 0V6      -0.095100
     13 Cl          -1.8850    -0.0880     1.9750 cl         1 0V6      -0.051400
     14 C14          3.3140     0.0110     2.1510 ca         1 0V6      -0.129300
     15 C15          4.4200    -0.5690     1.5120 ca         1 0V6      -0.074000
     16 C16          5.6800    -0.4990     2.1250 ca         1 0V6      -0.071300
     17 C17          5.7770     0.1590     3.3780 ca         1 0V6       0.418200
     18 N18          4.7260     0.7170     4.0010 nb         1 0V6      -0.660000
     19 C19          3.5260     0.6440     3.4000 ca         1 0V6       0.416200
     20 O21         -1.4540    -3.7290    -1.1460 o          1 0V6      -0.612500
     21 C22          0.7370    -3.7800    -2.7990 c3         1 0V6       0.086300
     22 C23          6.8150    -1.0640     1.5250 cg         1 0V6      -0.142000
     23 C24          7.7850    -1.5470     1.0130 c1         1 0V6      -0.090100
     24 C25          8.9390    -2.1220     0.4050 c3         1 0V6      -0.025000
     25 H1           0.6950    -0.0290     3.3370 ha         1 0V6       0.172000
     26 H2          -2.1780    -1.4770    -0.1440 hc         1 0V6       0.098700
     27 H3          -2.5920    -1.1990    -1.8910 hc         1 0V6       0.098700
     28 H4           0.5220     0.6860    -2.5570 hn         1 0V6       0.415800
     29 H5          -1.0840     2.0650    -1.0800 hc         1 0V6       0.054367
     30 H6          -2.3330     1.2100    -2.0860 hc         1 0V6       0.054367
     31 H7          -2.3860     1.0900    -0.2770 hc         1 0V6       0.054367
     32 H11          4.3030    -1.0800     0.5440 ha         1 0V6       0.150000
     33 H12          6.7490     0.2370     3.8980 h4         1 0V6       0.033100
     34 H13          2.6840     1.1160     3.9380 h4         1 0V6       0.029100
     35 H14          1.5580    -0.4810    -4.3900 hn         1 0V6       0.399400
     36 H15          0.3940    -4.6290    -2.1470 h1         1 0V6       0.058033
     37 H16          0.4750    -4.0050    -3.8670 h1         1 0V6       0.058033
     38 H17          1.8510    -3.6730    -2.7110 h1         1 0V6       0.058033
     39 H18          9.8450    -1.9530     1.0440 hc         1 0V6       0.061033
     40 H19          8.8010    -3.2270     0.2700 hc         1 0V6       0.061033
     41 H20          9.1230    -1.6620    -0.6010 hc         1 0V6       0.061033
     42 N20          1.2940    -1.3660    -4.0170 n2         1 0V6      -0.858100
@<TRIPOS>BOND
     1     1     2 1   
     2     1     3 2   
     3     1    11 1   
     4     2     5 1   
     5     3     4 1   
     6     3    13 1   
     7     4     5 2   
     8     4    25 1   
     9     5    14 1   
    10     6     7 1   
    11     6    11 1   
    12     6    26 1   
    13     6    27 1   
    14     7     8 1   
    15     7    20 2   
    16     8     9 1   
    17     8    21 1   
    18     9    10 1   
    19     9    42 2   
    20    10    11 1   
    21    10    28 1   
    22    11    12 1   
    23    12    29 1   
    24    12    30 1   
    25    12    31 1   
    26    14    15 ar  
    27    14    19 ar  
    28    15    16 ar  
    29    15    32 1   
    30    16    17 ar  
    31    16    22 1   
    32    17    18 ar  
    33    17    33 1   
    34    18    19 ar  
    35    19    34 1   
    36    21    36 1   
    37    21    37 1   
    38    21    38 1   
    39    22    23 3   
    40    23    24 1   
    41    24    39 1   
    42    24    40 1   
    43    24    41 1   
    44    35    42 1   
@<TRIPOS>SUBSTRUCTURE
     1 0V6         1 TEMP              0 ****  ****    0 ROOT
