@<TRIPOS>MOLECULE
molecule
   42    44     1     0     0
SMALL
bcc


@<TRIPOS>ATOM
      1 C2           0.0000     0.0000     0.0000 cc         1 0V6      -0.109400
      2 S1           1.7580     0.0000     0.0000 ss         1 0V6      -0.043800
      3 C3          -0.4520     0.0060     1.2580 cd         1 0V6       0.012400
      4 C4           0.5270     0.0110     2.2300 cd         1 0V6      -0.152000
      5 C5           1.7900     0.0000     1.7590 cc         1 0V6       0.041900
      6 C6           0.0140    -0.0010    -2.4850 c3         1 0V6      -0.178400
      7 C7           0.6210     1.3580    -2.6930 c          1 0V6       0.684500
      8 N8           0.0920     2.4740    -2.1730 n          1 0V6      -0.405300
      9 C9          -1.0220     2.4220    -1.3530 c2         1 0V6       0.624800
     10 N10         -1.6970     1.2170    -1.2580 nu         1 0V6      -0.798200
     11 C11         -0.8670    -0.0010    -1.2330 c3         1 0V6       0.282500
     12 C12         -1.7650    -1.2400    -1.2320 c3         1 0V6      -0.138100
     13 Cl          -2.1450     0.0070     1.6400 cl         1 0V6      -0.085400
     14 C14          3.0130     0.0030     2.5900 ca         1 0V6      -0.136300
     15 C15          2.9210     0.0160     3.9840 ca         1 0V6      -0.061000
     16 C16          4.1070     0.0170     4.7220 ca         1 0V6      -0.073300
     17 C17          5.3270     0.0050     4.0450 ca         1 0V6       0.437200
     18 N18          5.3690    -0.0080     2.7280 nb         1 0V6      -0.686000
     19 C19          4.2750    -0.0150     1.9950 ca         1 0V6       0.422200
     20 O21          1.6320     1.4470    -3.3570 o          1 0V6      -0.622500
     21 C22          0.7040     3.7700    -2.4760 c3         1 0V6       0.091300
     22 C23          4.0720     0.0310     6.1540 cg         1 0V6      -0.156000
     23 C24          4.0550     0.0590     7.3280 c1         1 0V6      -0.137100
     24 C25          3.7710    -0.2600     9.0090 c3         1 0V6       0.040000
     25 H1           0.1860    -0.1690     3.2430 ha         1 0V6       0.166000
     26 H2          -0.2590    -0.1640    -3.5210 hc         1 0V6       0.114200
     27 H3           0.4940    -0.7130    -1.8240 hc         1 0V6       0.114200
     28 H4          -2.1980     1.0730    -0.4040 hn         1 0V6       0.397800
     29 H5          -2.6170    -1.1790    -1.8990 hc         1 0V6       0.058033
     30 H6          -1.5430    -2.2740    -0.9950 hc         1 0V6       0.058033
     31 H7          -2.2830    -1.3030    -0.2830 hc         1 0V6       0.058033
     32 H11          1.9500     0.2640     4.3970 ha         1 0V6       0.153000
     33 H12          6.2560    -0.1430     4.5820 h4         1 0V6       0.035100
     34 H13          4.5030    -0.0210     0.9350 h4         1 0V6       0.033100
     35 H14         -2.2410     3.1470    -0.2180 hn         1 0V6       0.377400
     36 H15          0.1050     3.9600    -3.3580 h1         1 0V6       0.078033
     37 H16          1.7760     3.6770    -2.5970 h1         1 0V6       0.078033
     38 H17          0.2790     4.1980    -1.5760 h1         1 0V6       0.078033
     39 H18          2.8540     0.1970     9.3600 hc         1 0V6       0.060700
     40 H19          4.7870    -0.0370     9.3130 hc         1 0V6       0.060700
     41 H20          3.7680    -1.3280     9.1870 hc         1 0V6       0.060700
     42 N20         -1.4220     3.4710    -0.6940 n2         1 0V6      -0.834100
@<TRIPOS>BOND
     1     1     2 1   
     2     1    11 1   
     3     3     1 2   
     4     4     3 1   
     5     4     5 2   
     6     4    25 1   
     7     5     2 1   
     8     6     7 1   
     9     6    26 1   
    10     6    27 1   
    11     7    20 2   
    12     7     8 1   
    13     8    21 1   
    14     9     8 1   
    15     9    42 2   
    16    10     9 1   
    17    10    28 1   
    18    11     6 1   
    19    11    10 1   
    20    12    11 1   
    21    12    29 1   
    22    12    30 1   
    23    12    31 1   
    24    13     3 1   
    25    14     5 1   
    26    14    15 ar  
    27    15    16 ar  
    28    15    32 1   
    29    16    22 1   
    30    17    16 ar  
    31    17    33 1   
    32    18    19 ar  
    33    18    17 ar  
    34    19    14 ar  
    35    19    34 1   
    36    42    35 1   
    37    21    36 1   
    38    21    37 1   
    39    21    38 1   
    40    22    23 3   
    41    23    24 1   
    42    24    39 1   
    43    24    40 1   
    44    24    41 1   
@<TRIPOS>SUBSTRUCTURE
     1 0V6         1 TEMP              0 ****  ****    0 ROOT
