@<TRIPOS>MOLECULE
0V7
   27    27     1     0     0
SMALL
bcc


@<TRIPOS>ATOM
      1 OAC         -0.0240     0.6520    -1.0620 o          1 0V7      -0.722867
      2 SAO          1.0670     0.0760    -0.4000 s6         1 0V7       1.444800
      3 OAA          0.9860     0.1060     0.9960 o          1 0V7      -0.722867
      4 OAB          1.6500    -1.0420    -0.9830 o          1 0V7      -0.722867
      5 CAJ          2.3720     1.4150    -0.6880 c3         1 0V7      -0.305600
      6 CAI          1.8290     2.6660    -0.1100 c3         1 0V7       0.163800
      7 NAL          2.7680     3.8340    -0.2980 ny         1 0V7      -0.770000
      8 CAK          2.2180     5.0960     0.2680 c3         1 0V7       0.155100
      9 CAN          3.1570     6.2450     0.0890 ca         1 0V7      -0.137300
     10 CAH          4.2490     6.3780     0.9500 ca         1 0V7      -0.156000
     11 CAM          5.1160     7.4740     0.7960 ca         1 0V7       0.139900
     12 FAD          6.1760     7.6110     1.6240 f          1 0V7      -0.122900
     13 CAF          4.8840     8.4280    -0.2150 ca         1 0V7      -0.135000
     14 CAE          3.7890     8.2770    -1.0580 ca         1 0V7      -0.098000
     15 CAG          2.9250     7.1890    -0.9140 ca         1 0V7      -0.117000
     16 H1           2.5280     1.4590    -1.7860 h1         1 0V7       0.083200
     17 H2           3.2980     1.0570    -0.1910 h1         1 0V7       0.083200
     18 H3           1.6580     2.5450     1.0000 hx         1 0V7       0.112200
     19 H4           0.8510     2.9360    -0.6090 hx         1 0V7       0.112200
     20 H5           3.6620     3.6150     0.1510 hn         1 0V7       0.436800
     21 H7           2.0140     4.9220     1.3650 hx         1 0V7       0.107700
     22 H8           1.2320     5.3020    -0.2430 hx         1 0V7       0.107700
     23 H9           4.4310     5.6510     1.7550 ha         1 0V7       0.155000
     24 H10          5.5690     9.2830    -0.3220 ha         1 0V7       0.165000
     25 H11          3.6010     9.0230    -1.8470 ha         1 0V7       0.156000
     26 H12          2.0580     7.0870    -1.5850 ha         1 0V7       0.148000
     27 HAL2         2.9490     3.9510    -1.2990 hn         1 0V7       0.436800
@<TRIPOS>BOND
     1     1     2 1   
     2     2     3 1   
     3     2     4 1   
     4     2     5 1   
     5     5     6 1   
     6     5    16 1   
     7     5    17 1   
     8     6     7 1   
     9     6    18 1   
    10     6    19 1   
    11     7     8 1   
    12     7    20 1   
    13     7    27 1   
    14     8     9 1   
    15     8    21 1   
    16     8    22 1   
    17     9    10 ar  
    18     9    15 ar  
    19    10    11 ar  
    20    10    23 1   
    21    11    12 1   
    22    11    13 ar  
    23    13    14 ar  
    24    13    24 1   
    25    14    15 ar  
    26    14    25 1   
    27    15    26 1   
@<TRIPOS>SUBSTRUCTURE
     1 0V7         1 TEMP              0 ****  ****    0 ROOT
