@<TRIPOS>MOLECULE
0V7
   26    26     1     0     0
SMALL
bcc


@<TRIPOS>ATOM
      1 OAC          0.0000     0.0000     0.0000 o          1 0V7      -0.659200
      2 SAO          1.5220     0.0000     0.0000 s6         1 0V7       0.956800
      3 OAA          1.8720     0.0000     1.3770 o          1 0V7      -0.659200
      4 OAB          1.8720    -1.0870    -0.8460 o          1 0V7      -0.659200
      5 CAJ          1.9750     1.5790    -0.7710 c3         1 0V7      -0.056600
      6 CAI          3.4990     1.6990    -0.8300 c3         1 0V7       0.174800
      7 NAL          3.8650     2.9770    -1.4540 n7         1 0V7      -0.595200
      8 CAK          5.3250     3.1270    -1.5280 c3         1 0V7       0.196100
      9 CAN          5.6620     4.4470    -2.1730 ca         1 0V7      -0.051300
     10 CAH          5.8170     5.5770    -1.3930 ca         1 0V7      -0.130000
     11 CAM          6.1270     6.7900    -1.9860 ca         1 0V7       0.094900
     12 FAD          6.2780     7.8950    -1.2240 f          1 0V7      -0.135900
     13 CAF          6.2820     6.8680    -3.3590 ca         1 0V7      -0.146000
     14 CAE          6.1270     5.7360    -4.1370 ca         1 0V7      -0.083000
     15 CAG          5.8220     4.5250    -3.5440 ca         1 0V7      -0.091000
     16 H1           1.5700     2.3950    -0.1860 h1         1 0V7       0.052200
     17 H2           1.5710     1.6190    -1.7750 h1         1 0V7       0.052200
     18 H3           3.9030     1.6590     0.1740 h1         1 0V7       0.011200
     19 H4           3.9030     0.8820    -1.4150 h1         1 0V7       0.011200
     20 H5           3.4780     3.7310    -0.9220 hn         1 0V7       0.252800
     21 H7           5.7420     2.3200    -2.1170 h1         1 0V7       0.009200
     22 H8           5.7410     3.0970    -0.5280 h1         1 0V7       0.009200
     23 H9           5.7320     5.5070    -0.3150 ha         1 0V7       0.121000
     24 H10          6.5220     7.8160    -3.8240 ha         1 0V7       0.110000
     25 H11          6.2500     5.7960    -5.2120 ha         1 0V7       0.100000
     26 H12          5.7010     3.6390    -4.1550 ha         1 0V7       0.115000
@<TRIPOS>BOND
     1     1     2 1   
     2     2     3 1   
     3     2     4 1   
     4     2     5 1   
     5     5     6 1   
     6     5    16 1   
     7     5    17 1   
     8     6     7 1   
     9     6    18 1   
    10     6    19 1   
    11     7     8 1   
    12     7    20 1   
    13     8     9 1   
    14     8    21 1   
    15     8    22 1   
    16     9    10 ar  
    17     9    15 ar  
    18    10    11 ar  
    19    10    23 1   
    20    11    12 1   
    21    11    13 ar  
    22    13    14 ar  
    23    13    24 1   
    24    14    15 ar  
    25    14    25 1   
    26    15    26 1   
@<TRIPOS>SUBSTRUCTURE
     1 0V7         1 TEMP              0 ****  ****    0 ROOT
