@<TRIPOS>MOLECULE
0V8
   27    27     1     0     0
SMALL
bcc


@<TRIPOS>ATOM
      1 CAE         -0.2620    -0.0030     0.1500 ca         1 0V8      -0.123000
      2 CAF          1.0920    -0.0330    -0.1820 ca         1 0V8      -0.072000
      3 CAG         -0.6600     0.0160     1.4850 ca         1 0V8      -0.091000
      4 CAH          1.6650    -0.0150     2.1700 ca         1 0V8      -0.087000
      5 CAI         -0.5060    -1.2460     6.0140 c3         1 0V8       0.163800
      6 CAJ         -0.4960    -2.5900     6.6380 c3         1 0V8      -0.305600
      7 CAM          2.0600    -0.0390     0.8300 ca         1 0V8      -0.028900
      8 CAN          0.3050     0.0090     2.4970 ca         1 0V8      -0.165300
      9 NAL         -0.0860    -1.2880     4.5640 ny         1 0V8      -0.770000
     10 OAA         -0.1040    -1.4760     8.8910 o          1 0V8      -0.723200
     11 OAB         -2.3350    -1.7820     8.1960 o          1 0V8      -0.723200
     12 OAC         -1.0570    -3.6600     8.9140 o          1 0V8      -0.723200
     13 SAO         -1.0810    -2.3610     8.4210 s6         1 0V8       1.444800
     14 Br           3.8770    -0.0760     0.3930 br         1 0V8      -0.049100
     15 CAK         -0.1090     0.0590     3.9300 c3         1 0V8       0.157100
     16 H1          -1.0210     0.0070    -0.6490 ha         1 0V8       0.156000
     17 H2           1.3940    -0.0480    -1.2420 ha         1 0V8       0.162000
     18 H3          -1.7320     0.0470     1.7390 ha         1 0V8       0.146000
     19 H4           2.4220    -0.0040     2.9710 ha         1 0V8       0.152000
     20 H5          -1.5460    -0.8040     6.0500 hx         1 0V8       0.111700
     21 H6           0.2080    -0.5560     6.5530 hx         1 0V8       0.111700
     22 H7           0.5130    -3.0470     6.6980 h1         1 0V8       0.083200
     23 H8          -1.2060    -3.3050     6.1720 h1         1 0V8       0.083200
     24 H9          -1.1560     0.4680     4.0290 hx         1 0V8       0.107200
     25 H10          0.5850     0.7280     4.5190 hx         1 0V8       0.107200
     26 H11         -0.7140    -1.9210     4.0590 hn         1 0V8       0.436300
     27 HAL2         0.8580    -1.6820     4.5050 hn         1 0V8       0.436300
@<TRIPOS>BOND
     1     1     2 ar  
     2     1     3 ar  
     3     1    16 1   
     4     2     7 ar  
     5     2    17 1   
     6     3     8 ar  
     7     3    18 1   
     8     4     7 ar  
     9     4     8 ar  
    10     4    19 1   
    11     5     6 1   
    12     5     9 1   
    13     5    20 1   
    14     5    21 1   
    15     6    13 1   
    16     6    22 1   
    17     6    23 1   
    18     7    14 1   
    19     8    15 1   
    20     9    15 1   
    21     9    26 1   
    22     9    27 1   
    23    10    13 1   
    24    11    13 1   
    25    12    13 1   
    26    15    24 1   
    27    15    25 1   
@<TRIPOS>SUBSTRUCTURE
     1 0V8         1 TEMP              0 ****  ****    0 ROOT
