@<TRIPOS>MOLECULE
molecule
   26    26     1     0     0
SMALL
bcc


@<TRIPOS>ATOM
      1 CAE          0.0000     0.0000     0.0000 ca         1 0V8      -0.134000
      2 CAF          1.3820     0.0000     0.0000 ca         1 0V8      -0.114000
      3 CAG         -0.6900     0.0050     1.1990 ca         1 0V8      -0.094000
      4 CAH          1.3830     0.0010     2.3950 ca         1 0V8      -0.101000
      5 CAI         -1.7330    -1.4000     5.4030 c3         1 0V8       0.179800
      6 CAJ         -1.9680    -2.8540     5.8170 c3         1 0V8      -0.255600
      7 CAM          2.0740     0.0000     1.1980 ca         1 0V8      -0.018900
      8 CAN          0.0000     0.0110     2.3950 ca         1 0V8      -0.067300
      9 NAL         -0.9980    -1.3660     4.1310 n7         1 0V8      -0.812200
     10 OAA         -3.0450    -4.3770     7.6890 o          1 0V8      -0.706533
     11 OAB         -2.0600    -2.4130     8.4470 o          1 0V8      -0.706533
     12 OAC         -4.2020    -2.4180     7.2100 o          1 0V8      -0.706533
     13 SAO         -2.8750    -2.8950     7.3870 s6         1 0V8       1.253800
     14 Br           3.9650    -0.0150     1.1970 br         1 0V8      -0.117100
     15 H1          -0.5420    -0.0020    -0.9380 ha         1 0V8       0.130000
     16 H2           1.9230    -0.0020    -0.9380 ha         1 0V8       0.133000
     17 H3          -1.7740     0.0090     1.1990 ha         1 0V8       0.143000
     18 H4           1.9250     0.0030     3.3340 ha         1 0V8       0.144000
     19 H5          -2.6860    -0.8990     5.2830 h1         1 0V8       0.034200
     20 H6          -1.1540    -0.8960     6.1680 h1         1 0V8       0.034200
     21 H7          -2.5470    -3.3580     5.0520 h1         1 0V8       0.079700
     22 H8          -1.0150    -3.3540     5.9370 h1         1 0V8       0.079700
     23 H9          -1.7000     0.5270     3.5690 h1         1 0V8       0.037200
     24 H10         -0.1670     0.5310     4.4530 h1         1 0V8       0.037200
     25 H11         -0.1240    -1.8420     4.2380 hn         1 0V8       0.352800
     26 CAK         -0.7530     0.0170     3.7010 c3         1 0V8       0.197100
@<TRIPOS>BOND
     1    11    13 1   
     2    12    13 1   
     3    13    10 1   
     4    13     6 1   
     5     6     5 1   
     6     5     9 1   
     7     9    26 1   
     8    26     8 1   
     9     8     3 ar  
    10     8     4 ar  
    11     3     1 ar  
    12     4     7 ar  
    13     1     2 ar  
    14     7     2 ar  
    15     7    14 1   
    16     1    15 1   
    17     2    16 1   
    18     3    17 1   
    19     4    18 1   
    20     5    19 1   
    21     5    20 1   
    22     6    21 1   
    23     6    22 1   
    24    26    23 1   
    25    26    24 1   
    26     9    25 1   
@<TRIPOS>SUBSTRUCTURE
     1 0V8         1 TEMP              0 ****  ****    0 ROOT
