@<TRIPOS>MOLECULE
0V8
   26    26     1     0     0
SMALL
bcc


@<TRIPOS>ATOM
      1 CAE          0.0000     0.0000     0.0000 ca         1 0V8      -0.103000
      2 CAF          1.3820     0.0000     0.0000 ca         1 0V8      -0.098000
      3 CAG         -0.6900     0.0050     1.1990 ca         1 0V8      -0.071000
      4 CAH          1.3830     0.0010     2.3950 ca         1 0V8      -0.081000
      5 CAI         -1.7330    -1.4000     5.4030 c3         1 0V8       0.174800
      6 CAJ         -1.9680    -2.8540     5.8170 c3         1 0V8      -0.056600
      7 CAM          2.0740     0.0000     1.1980 ca         1 0V8       0.041100
      8 CAN          0.0000     0.0110     2.3950 ca         1 0V8      -0.071300
      9 NAL         -0.9980    -1.3660     4.1310 n7         1 0V8      -0.596200
     10 OAA         -3.0450    -4.3770     7.6890 o          1 0V8      -0.659200
     11 OAB         -2.0600    -2.4130     8.4470 o          1 0V8      -0.659200
     12 OAC         -4.2020    -2.4180     7.2100 o          1 0V8      -0.659200
     13 SAO         -2.8750    -2.8950     7.3870 s6         1 0V8       0.956800
     14 Br           3.9650    -0.0150     1.1970 br         1 0V8      -0.157100
     15 H1          -0.5420    -0.0020    -0.9380 ha         1 0V8       0.101000
     16 H2           1.9230    -0.0020    -0.9380 ha         1 0V8       0.109000
     17 H3          -1.7740     0.0090     1.1990 ha         1 0V8       0.114000
     18 H4           1.9250     0.0030     3.3340 ha         1 0V8       0.120000
     19 H5          -2.6860    -0.8990     5.2830 h1         1 0V8       0.011200
     20 H6          -1.1540    -0.8960     6.1680 h1         1 0V8       0.011200
     21 H7          -2.5470    -3.3580     5.0520 h1         1 0V8       0.052200
     22 H8          -1.0150    -3.3540     5.9370 h1         1 0V8       0.052200
     23 H9          -1.7000     0.5270     3.5690 h1         1 0V8       0.008700
     24 H10         -0.1670     0.5310     4.4530 h1         1 0V8       0.008700
     25 H11         -0.1240    -1.8420     4.2380 hn         1 0V8       0.252800
     26 CAK         -0.7530     0.0170     3.7010 c3         1 0V8       0.198100
@<TRIPOS>BOND
     1     1     2 ar  
     2     1     3 ar  
     3     1    15 1   
     4     2     7 ar  
     5     2    16 1   
     6     3     8 ar  
     7     3    17 1   
     8     4     7 ar  
     9     4     8 ar  
    10     4    18 1   
    11     5     6 1   
    12     5     9 1   
    13     5    19 1   
    14     5    20 1   
    15     6    13 1   
    16     6    21 1   
    17     6    22 1   
    18     7    14 1   
    19     8    26 1   
    20     9    25 1   
    21     9    26 1   
    22    10    13 1   
    23    11    13 1   
    24    12    13 1   
    25    23    26 1   
    26    24    26 1   
@<TRIPOS>SUBSTRUCTURE
     1 0V8         1 TEMP              0 ****  ****    0 ROOT
