@<TRIPOS>MOLECULE
0VA
   49    51     1     0     0
SMALL
bcc


@<TRIPOS>ATOM
      1 C01          0.0000     0.0000     0.0000 ca         1 0VA      -0.038000
      2 C02          0.0060    -0.0060     2.4130 ca         1 0VA      -0.038000
      3 C03          1.3790     0.0000     0.0000 ca         1 0VA      -0.176500
      4 C04          1.3850    -0.0010     2.4070 ca         1 0VA      -0.176500
      5 C05          0.6590    -5.5430     5.4020 ca         1 0VA      -0.066000
      6 C06         -1.5270    -6.0980     6.2150 ca         1 0VA      -0.066000
      7 C07         -0.6950     0.0000     1.2090 ca         1 0VA      -0.201500
      8 C08         -2.9490    -0.6940     2.2150 cc         1 0VA      -0.333900
      9 C09         -0.5230    -5.1680     6.0120 ca         1 0VA      -0.115300
     10 C10         -0.1670    -7.7860     5.1860 ca         1 0VA       0.050600
     11 C11          2.0750     0.0000     1.2010 ca         1 0VA       0.170100
     12 C12          0.8410    -6.8500     4.9880 ca         1 0VA      -0.060100
     13 C13         -1.3500    -7.4080     5.8090 ca         1 0VA      -0.060100
     14 C14         -2.1780     0.0070     1.2120 cc         1 0VA       0.486800
     15 C15         -4.3070    -0.5620     2.0400 cd         1 0VA       0.046600
     16 C17         -1.5960    -1.6330     5.5410 c2         1 0VA       0.401800
     17 C18         -5.3930    -1.1630     2.8950 c3         1 0VA       0.096200
     18 C19          4.0850    -0.0020     2.4700 c3         1 0VA       0.243700
     19 C20         -0.7200    -3.7420     6.4570 c3         1 0VA       0.244100
     20 N21         -2.8710     0.6460     0.3130 nd         1 0VA      -0.389100
     21 N22         -2.0580    -0.8790     4.4810 ns         1 0VA      -0.097400
     22 N23          0.0150    -9.1090     4.7730 nv         1 0VA      -0.526200
     23 N24         -1.4180    -1.0790     6.7060 n2         1 0VA      -0.845100
     24 N25         -1.3220    -2.9690     5.3660 nu         1 0VA      -0.526200
     25 O26         -2.0970    -2.6540     3.1450 o          1 0VA      -0.614100
     26 O27          3.4330    -0.0010     1.1980 os         1 0VA      -0.304900
     27 S28         -4.5150     0.4270     0.6510 ss         1 0VA       0.006200
     28 Cl1          2.3250    -7.3200     4.2210 cl         1 0VA      -0.014900
     29 Cl2         -2.6130    -8.5720     6.0590 cl         1 0VA      -0.014900
     30 H1          -0.5420     0.0020    -0.9380 ha         1 0VA       0.111500
     31 H2          -0.5320    -0.0060     3.3540 ha         1 0VA       0.111500
     32 H3           1.9200     0.0000    -0.9390 ha         1 0VA       0.123000
     33 H4           1.9310    -0.0030     3.3430 ha         1 0VA       0.123000
     34 H6          -2.4500    -5.8010     6.6980 ha         1 0VA       0.119000
     35 H7          -5.2020    -2.2200     3.0320 hc         1 0VA       0.022367
     36 H8          -6.3520    -1.0290     2.4080 hc         1 0VA       0.022367
     37 H9          -5.4070    -0.6710     3.8600 hc         1 0VA       0.022367
     38 H10          3.7980     0.8840     3.0240 h1         1 0VA      -0.000633
     39 H11          5.1590    -0.0040     2.3250 h1         1 0VA      -0.000633
     40 H12          3.7940    -0.8850     3.0240 h1         1 0VA      -0.000633
     41 H13          0.2390    -3.3100     6.7190 h1         1 0VA       0.026700
     42 H14         -1.3740    -3.7190     7.3200 h1         1 0VA       0.026700
     43 H15         -2.1950     0.1060     4.5900 hn         1 0VA       0.191500
     44 H16          0.0520    -9.8440     5.4510 hn         1 0VA       0.280800
     45 H17          0.0940    -9.3220     3.7980 hn         1 0VA       0.280800
     46 H18         -1.6180    -0.1060     6.8320 hn         1 0VA       0.326400
     47 H19         -1.5510    -3.4180     4.5020 hn         1 0VA       0.373800
     48 C16         -2.3420    -1.4730     3.3050 c          1 0VA       0.639700
     49 H5           1.4430    -4.8130     5.2470 ha         1 0VA       0.119000
@<TRIPOS>BOND
     1     1     3 ar  
     2     1     7 ar  
     3     1    30 1   
     4     2     4 ar  
     5     2     7 ar  
     6     2    31 1   
     7     3    11 ar  
     8     3    32 1   
     9     4    11 ar  
    10     4    33 1   
    11     5     9 ar  
    12     5    12 ar  
    13     5    49 1   
    14     6     9 ar  
    15     6    13 ar  
    16     6    34 1   
    17     7    14 1   
    18     8    14 1   
    19     8    15 2   
    20     8    48 1   
    21     9    19 1   
    22    10    12 ar  
    23    10    13 ar  
    24    10    22 1   
    25    11    26 1   
    26    12    28 1   
    27    13    29 1   
    28    14    20 2   
    29    15    17 1   
    30    15    27 1   
    31    16    21 1   
    32    16    23 2   
    33    16    24 1   
    34    17    35 1   
    35    17    36 1   
    36    17    37 1   
    37    18    26 1   
    38    18    38 1   
    39    18    39 1   
    40    18    40 1   
    41    19    24 1   
    42    19    41 1   
    43    19    42 1   
    44    20    27 1   
    45    21    43 1   
    46    21    48 1   
    47    22    44 1   
    48    22    45 1   
    49    23    46 1   
    50    24    47 1   
    51    25    48 2   
@<TRIPOS>SUBSTRUCTURE
     1 0VA         1 TEMP              0 ****  ****    0 ROOT
