@<TRIPOS>MOLECULE
molecule
   49    51     1     0     0
SMALL
bcc


@<TRIPOS>ATOM
      1 C01          0.0000     0.0000     0.0000 ca         1 0VA      -0.062000
      2 C02          0.0060    -0.0060     2.4130 ca         1 0VA      -0.062000
      3 C03          1.3790     0.0000     0.0000 ca         1 0VA      -0.192500
      4 C04          1.3850    -0.0010     2.4070 ca         1 0VA      -0.192500
      5 C05          0.6590    -5.5430     5.4020 ca         1 0VA      -0.101000
      6 C06         -1.5270    -6.0980     6.2150 ca         1 0VA      -0.101000
      7 C07         -0.6950     0.0000     1.2090 ca         1 0VA      -0.186500
      8 C08         -2.9490    -0.6940     2.2150 cc         1 0VA      -0.322900
      9 C09         -0.5230    -5.1680     6.0120 ca         1 0VA      -0.097300
     10 C10         -0.1670    -7.7860     5.1860 ca         1 0VA       0.186600
     11 C11          2.0750     0.0000     1.2010 ca         1 0VA       0.158100
     12 C12          0.8410    -6.8500     4.9880 ca         1 0VA       0.016400
     13 C13         -1.3500    -7.4080     5.8090 ca         1 0VA       0.016400
     14 C14         -2.1780     0.0070     1.2120 cd         1 0VA       0.472800
     15 C15         -4.3070    -0.5620     2.0400 cd         1 0VA      -0.003400
     16 C17         -1.5960    -1.6330     5.5410 c2         1 0VA       0.699800
     17 C18         -5.3930    -1.1630     2.8950 c3         1 0VA      -0.023800
     18 C19          4.0850    -0.0020     2.4700 c3         1 0VA       0.127700
     19 C20         -0.7200    -3.7420     6.4570 c3         1 0VA       0.285100
     20 N21         -2.8710     0.6460     0.3130 nc         1 0VA      -0.471100
     21 N22         -2.0580    -0.8790     4.4810 ns         1 0VA      -0.471400
     22 N23          0.0150    -9.1090     4.7730 nv         1 0VA      -0.979200
     23 N24         -1.4180    -1.0790     6.7060 n2         1 0VA      -0.961100
     24 N25         -1.3220    -2.9690     5.3660 nu         1 0VA      -0.943200
     25 O26         -2.0970    -2.6540     3.1450 o          1 0VA      -0.579100
     26 O27          3.4330    -0.0010     1.1980 os         1 0VA      -0.325900
     27 S28         -4.5150     0.4270     0.6510 ss         1 0VA       0.147200
     28 Cl1          2.3250    -7.3200     4.2210 cl         1 0VA      -0.089900
     29 Cl2         -2.6130    -8.5720     6.0590 cl         1 0VA      -0.089900
     30 H1          -0.5420     0.0020    -0.9380 ha         1 0VA       0.146000
     31 H2          -0.5320    -0.0060     3.3540 ha         1 0VA       0.146000
     32 H3           1.9200     0.0000    -0.9390 ha         1 0VA       0.145500
     33 H4           1.9310    -0.0030     3.3430 ha         1 0VA       0.145500
     34 H6          -2.4500    -5.8010     6.6980 ha         1 0VA       0.151000
     35 H7          -5.1780    -2.2100     3.0700 hc         1 0VA       0.061367
     36 H8          -6.3460    -1.0700     2.3880 hc         1 0VA       0.061367
     37 H9          -5.4370    -0.6410     3.8440 hc         1 0VA       0.061367
     38 H10          3.7990     0.8850     3.0230 h1         1 0VA       0.043700
     39 H11          3.7920    -0.8840     3.0250 h1         1 0VA       0.043700
     40 H12          5.1590    -0.0060     2.3250 h1         1 0VA       0.043700
     41 H13         -1.3740    -3.7190     7.3200 h1         1 0VA       0.044700
     42 H14          0.2390    -3.3100     6.7190 h1         1 0VA       0.044700
     43 H15         -2.2240     0.1010     4.5990 hn         1 0VA       0.357500
     44 H16         -0.2540    -9.3870     3.8500 hn         1 0VA       0.438800
     45 H17          0.4160    -9.7780     5.3990 hn         1 0VA       0.438800
     46 H18         -1.0830    -1.6250     7.4740 hn         1 0VA       0.413400
     47 H19         -1.5740    -3.4240     4.5110 hn         1 0VA       0.485800
     48 C16         -2.3420    -1.4730     3.3050 c          1 0VA       0.720700
     49 H5           1.4430    -4.8120     5.2470 ha         1 0VA       0.151000
@<TRIPOS>BOND
     1    26    18 1
     2    26    11 1
     3     3    11 ar
     4     3     1 ar
     5    11     4 ar
     6     1     7 ar
     7     4     2 ar
     8     7     2 ar
     9     7    14 1
    10    28    12 1
    11    20    14 2
    12    20    27 1
    13    14     8 1
    14    22    10 1
    15    27    15 1
    16    12    10 ar
    17    12     5 ar
    18     8    15 2
    19     8    48 1
    20    10    13 ar
    21     5     9 ar
    22    25    48 2
    23    15    17 1
    24    48    21 1
    25    13    29 1
    26    13     6 ar
    27     9     6 ar
    28     9    19 1
    29    24    19 1
    30    24    16 1
    31    21    16 1
    32    16    23 2
    33     1    30 1
    34     2    31 1
    35     3    32 1
    36     4    33 1
    37     5    49 1
    38     6    34 1
    39    17    35 1
    40    17    36 1
    41    17    37 1
    42    18    38 1
    43    18    39 1
    44    18    40 1
    45    19    41 1
    46    19    42 1
    47    21    43 1
    48    22    44 1
    49    22    45 1
    50    23    46 1
    51    24    47 1
@<TRIPOS>SUBSTRUCTURE
     1 0VA         1 TEMP              0 ****  ****    0 ROOT
