@<TRIPOS>MOLECULE
0VA
   51    53     1     0     0
SMALL
bcc


@<TRIPOS>ATOM
      1 C01         -0.6080    -0.4820     0.6730 ca         1 0VA      -0.040500
      2 C02          0.4290     1.2310     2.0480 ca         1 0VA      -0.040500
      3 C03          0.5710    -0.6390    -0.0350 ca         1 0VA      -0.194000
      4 C04          1.6220     1.0790     1.3520 ca         1 0VA      -0.194000
      5 C05          0.8680    -6.5520     4.7610 ca         1 0VA      -0.038000
      6 C06         -0.5750    -6.4260     6.7060 ca         1 0VA      -0.038000
      7 C07         -0.6860     0.4370     1.7350 ca         1 0VA      -0.273500
      8 C08         -2.7640    -0.3800     3.0850 cc         1 0VA      -0.419900
      9 C09         -0.3990    -6.2930     5.3170 ca         1 0VA      -0.328300
     10 C10          1.7870    -7.0510     6.9850 ca         1 0VA       0.294600
     11 C11          1.6980     0.1440     0.3070 ca         1 0VA       0.191100
     12 C12          1.9380    -6.9020     5.5610 ca         1 0VA      -0.089100
     13 C13          0.4790    -6.7810     7.5250 ca         1 0VA      -0.089100
     14 C14         -1.9400     0.6590     2.4410 cc         1 0VA       0.597800
     15 C15         -3.9020     0.2170     3.6940 cd         1 0VA      -0.145400
     16 C17         -1.8270    -3.5580     4.7900 c2         1 0VA       0.616100
     17 C18         -5.0070    -0.4580     4.3830 c3         1 0VA      -0.069800
     18 C20         -1.5510    -6.0460     4.4390 c3         1 0VA       0.210100
     19 N21         -2.4580     1.8740     2.6150 nd         1 0VA      -0.566100
     20 N22         -2.8400    -2.5540     4.3340 ny         1 0VA      -0.689800
     21 N23          2.8170    -7.4170     7.7730 nv         1 0VA      -0.795200
     22 N24         -1.3110    -3.3940     5.9490 n2         1 0VA      -0.638100
     23 N25         -1.5100    -4.6530     3.8110 ny         1 0VA      -0.785000
     24 O26         -1.8370    -2.4640     2.2360 o          1 0VA      -0.483100
     25 O27          2.8160    -0.1000    -0.4410 os         1 0VA      -0.306900
     26 S28         -3.8450     1.8280     3.4340 ss         1 0VA       0.616200
     27 Cl1          3.4450    -7.1840     4.8430 cl         1 0VA      -0.021900
     28 Cl2          0.2130    -6.9260     9.1910 cl         1 0VA      -0.021900
     29 C16         -2.4100    -1.7480     3.0430 c          1 0VA       0.664700
     30 C19          3.9300     0.7750    -0.2470 c3         1 0VA       0.104700
     31 H1          -1.4960    -1.0630     0.3780 ha         1 0VA       0.146500
     32 H2           0.3640     1.9880     2.8480 ha         1 0VA       0.146500
     33 H3           0.6420    -1.3420    -0.8790 ha         1 0VA       0.168500
     34 H4           2.4890     1.7070     1.6090 ha         1 0VA       0.168500
     35 H7          -5.3270    -1.3840     3.8420 hc         1 0VA       0.073700
     36 H8          -4.7350    -0.7170     5.4400 hc         1 0VA       0.073700
     37 H9          -5.9080     0.2120     4.4400 hc         1 0VA       0.073700
     38 H13         -2.5310    -6.1430     4.9850 hx         1 0VA       0.119200
     39 H14         -1.5420    -6.7510     3.5520 hx         1 0VA       0.119200
     40 H15         -2.9910    -1.8660     5.0940 hn         1 0VA       0.482800
     41 H16          3.7070    -7.6340     7.3800 hn         1 0VA       0.473800
     42 H17          2.6870    -7.5540     8.7520 hn         1 0VA       0.473800
     43 H18         -0.6240    -4.0280     6.3210 hn         1 0VA       0.519400
     44 H19         -2.1440    -4.6260     3.0000 hn         1 0VA       0.475300
     45 H5           1.0090    -6.4960     3.6680 ha         1 0VA       0.152500
     46 H222        -3.7330    -3.0270     4.1570 hn         1 0VA       0.482800
     47 H252        -0.5550    -4.4750     3.4560 hn         1 0VA       0.475300
     48 H6          -1.5750    -6.2790     7.1500 ha         1 0VA       0.152500
     49 H10          4.3420     0.6530     0.7830 h1         1 0VA       0.064033
     50 H11          4.6650     0.4200    -1.0160 h1         1 0VA       0.064033
     51 H12          3.6360     1.8350    -0.4390 h1         1 0VA       0.064033
@<TRIPOS>BOND
     1     1     3 ar  
     2     1     7 ar  
     3     1    31 1   
     4     2     4 ar  
     5     2     7 ar  
     6     2    32 1   
     7     3    11 ar  
     8     3    33 1   
     9     4    11 ar  
    10     4    34 1   
    11     5     9 ar  
    12     5    12 ar  
    13     5    45 1   
    14     6     9 ar  
    15     6    13 ar  
    16     6    48 1   
    17     7    14 1   
    18     8    14 1   
    19     8    15 2   
    20     8    29 1   
    21     9    18 1   
    22    10    12 ar  
    23    10    13 ar  
    24    10    21 1   
    25    11    25 1   
    26    12    27 1   
    27    13    28 1   
    28    14    19 2   
    29    15    17 1   
    30    15    26 1   
    31    16    20 1   
    32    16    22 2   
    33    16    23 1   
    34    17    35 1   
    35    17    36 1   
    36    17    37 1   
    37    18    23 1   
    38    18    38 1   
    39    18    39 1   
    40    19    26 1   
    41    20    29 1   
    42    20    40 1   
    43    20    46 1   
    44    21    41 1   
    45    21    42 1   
    46    22    43 1   
    47    23    44 1   
    48    23    47 1   
    49    24    29 2   
    50    25    30 1   
    51    30    49 1   
    52    30    50 1   
    53    30    51 1   
@<TRIPOS>SUBSTRUCTURE
     1 0VA         1 TEMP              0 ****  ****    0 ROOT
