@<TRIPOS>MOLECULE
0VB
   59    61     1     0     0
SMALL
bcc


@<TRIPOS>ATOM
      1 C01         -0.3500    -0.8150     1.0180 ca         1 0VB      -0.047500
      2 C02         -0.2270     1.5040     1.7310 ca         1 0VB      -0.047500
      3 C03          1.0320    -0.8890     0.9910 ca         1 0VB      -0.192000
      4 C04          1.1620     1.4420     1.7150 ca         1 0VB      -0.192000
      5 C05         -0.3150    -4.9890     7.3770 ca         1 0VB      -0.078000
      6 C06         -0.1620    -6.2110     5.2910 ca         1 0VB      -0.061000
      7 C07         -0.9940     0.3720     1.4110 ca         1 0VB      -0.275500
      8 C08         -3.3760    -0.4380     2.0690 cc         1 0VB      -0.434900
      9 C09         -0.8920    -5.3910     6.1630 ca         1 0VB      -0.254300
     10 C10          0.9810    -5.3550     7.7240 ca         1 0VB      -0.062300
     11 C11          1.7680    -6.1240     6.8110 ca         1 0VB       0.168600
     12 C12          1.7970     0.2460     1.3460 ca         1 0VB       0.190100
     13 C13          1.1390    -6.5770     5.6080 ca         1 0VB      -0.047600
     14 C14         -2.4460     0.4760     1.3850 cc         1 0VB       0.585800
     15 C15         -4.7140    -0.0140     1.8650 cd         1 0VB      -0.124400
     16 C17          4.0880    -5.6110     7.5510 c          1 0VB       0.676100
     17 C18         -3.5760    -3.0860     4.7770 c2         1 0VB       0.618100
     18 C19          1.4920    -4.9540     9.0560 c3         1 0VB      -0.075800
     19 C20         -5.9340    -0.6780     2.3370 c3         1 0VB      -0.073800
     20 C21          5.4180    -6.2450     7.8570 c3         1 0VB      -0.176100
     21 C23         -2.2740    -5.0000     5.8330 c3         1 0VB       0.205100
     22 N24         -3.0920     1.4620     0.7670 nd         1 0VB      -0.556100
     23 N25         -3.5520    -1.6950     4.2200 ny         1 0VB      -0.696800
     24 N26         -4.7190    -3.6420     4.9140 n2         1 0VB      -0.641100
     25 N27          3.0830    -6.4800     7.0720 ns         1 0VB      -0.483100
     26 N28         -2.2260    -3.6690     5.0750 ny         1 0VB      -0.798000
     27 O29         -2.1440    -2.4930     2.5370 o          1 0VB      -0.458100
     28 O30          3.8620    -4.4000     7.6840 o          1 0VB      -0.559100
     29 O31          3.1510     0.0630     1.3030 os         1 0VB      -0.307900
     30 S32         -4.6930     1.3270     0.9260 ss         1 0VB       0.593200
     31 Cl1          1.9760    -7.5750     4.5220 cl         1 0VB      -0.029400
     32 C16         -2.9270    -1.5870     2.7670 c          1 0VB       0.679700
     33 C22          3.9690     1.2200     1.4980 c3         1 0VB       0.104700
     34 H1          -0.9440    -1.6850     0.6950 ha         1 0VB       0.148000
     35 H2          -0.7230     2.4540     1.9890 ha         1 0VB       0.148000
     36 H3           1.5500    -1.8060     0.6690 ha         1 0VB       0.169000
     37 H4           1.7500     2.3370     1.9690 ha         1 0VB       0.169000
     38 H5          -0.9090    -4.4000     8.0960 ha         1 0VB       0.141000
     39 H6          -0.6180    -6.5770     4.3560 ha         1 0VB       0.154000
     40 H7           2.1080    -4.0190     8.9730 hc         1 0VB       0.075033
     41 H8           0.6480    -4.7590     9.7640 hc         1 0VB       0.075033
     42 H9           2.1380    -5.7520     9.5000 hc         1 0VB       0.075033
     43 H10         -6.8060    -0.4310     1.6720 hc         1 0VB       0.078367
     44 H11         -5.8270    -1.7930     2.3320 hc         1 0VB       0.078367
     45 H12         -6.2080    -0.3360     3.3690 hc         1 0VB       0.078367
     46 H13          5.8730    -6.6700     6.9290 hc         1 0VB       0.090367
     47 H14          6.1000    -5.4580     8.2670 hc         1 0VB       0.090367
     48 H15          5.3040    -7.0590     8.6150 hc         1 0VB       0.090367
     49 H16          3.7250     2.0060     0.7430 h1         1 0VB       0.064367
     50 H17          3.8440     1.6100     2.5370 h1         1 0VB       0.064367
     51 H18          5.0050     0.8240     1.3410 h1         1 0VB       0.064367
     52 H19         -2.7690    -5.7520     5.1540 hx         1 0VB       0.109200
     53 H20         -2.8910    -4.8370     6.7610 hx         1 0VB       0.109200
     54 H21         -3.0210    -1.0780     4.8440 hn         1 0VB       0.485300
     55 H22         -4.8280    -4.5750     5.2630 hn         1 0VB       0.508400
     56 H23          3.3920    -7.3520     6.6900 hn         1 0VB       0.344500
     57 H24         -1.6640    -3.0140     5.6380 hn         1 0VB       0.479300
     58 H252        -4.5220    -1.3330     4.1730 hn         1 0VB       0.485300
     59 H282        -1.7240    -3.8240     4.1800 hn         1 0VB       0.479300
@<TRIPOS>BOND
     1     1     3 ar  
     2     1     7 ar  
     3     1    34 1   
     4     2     4 ar  
     5     2     7 ar  
     6     2    35 1   
     7     3    12 ar  
     8     3    36 1   
     9     4    12 ar  
    10     4    37 1   
    11     5     9 ar  
    12     5    10 ar  
    13     5    38 1   
    14     6     9 ar  
    15     6    13 ar  
    16     6    39 1   
    17     7    14 1   
    18     8    14 1   
    19     8    15 2   
    20     8    32 1   
    21     9    21 1   
    22    10    11 ar  
    23    10    18 1   
    24    11    13 ar  
    25    11    25 1   
    26    12    29 1   
    27    13    31 1   
    28    14    22 2   
    29    15    19 1   
    30    15    30 1   
    31    16    20 1   
    32    16    25 1   
    33    16    28 2   
    34    17    23 1   
    35    17    24 2   
    36    17    26 1   
    37    18    40 1   
    38    18    41 1   
    39    18    42 1   
    40    19    43 1   
    41    19    44 1   
    42    19    45 1   
    43    20    46 1   
    44    20    47 1   
    45    20    48 1   
    46    21    26 1   
    47    21    52 1   
    48    21    53 1   
    49    22    30 1   
    50    23    32 1   
    51    23    54 1   
    52    23    58 1   
    53    24    55 1   
    54    25    56 1   
    55    26    57 1   
    56    26    59 1   
    57    27    32 2   
    58    29    33 1   
    59    33    49 1   
    60    33    50 1   
    61    33    51 1   
@<TRIPOS>SUBSTRUCTURE
     1 0VB         1 TEMP              0 ****  ****    0 ROOT
