@<TRIPOS>MOLECULE
molecule
   57    59     1     0     0
SMALL
bcc


@<TRIPOS>ATOM
      1 C01          0.0000     0.0000     0.0000 ca         1 0VB      -0.063500
      2 C02          0.0040    -0.0050     2.4130 ca         1 0VB      -0.063500
      3 C03          1.3790     0.0000     0.0000 ca         1 0VB      -0.193000
      4 C04          1.3830     0.0000     2.4070 ca         1 0VB      -0.193000
      5 C05         -0.6870    -6.0300     5.7070 ca         1 0VB      -0.091000
      6 C06          1.4580    -5.0740     5.2270 ca         1 0VB      -0.095000
      7 C07         -0.6970     0.0010     1.2080 ca         1 0VB      -0.186500
      8 C08         -2.9500    -0.6930     2.2130 cc         1 0VB      -0.321900
      9 C09          0.1730    -4.9460     5.7190 ca         1 0VB      -0.111300
     10 C10         -0.2620    -7.2450     5.2060 ca         1 0VB      -0.102300
     11 C11          1.0280    -7.3780     4.7110 ca         1 0VB       0.072600
     12 C12          2.0740     0.0000     1.2020 ca         1 0VB       0.158100
     13 C13          1.8880    -6.2860     4.7200 ca         1 0VB       0.028400
     14 C14         -2.1790     0.0080     1.2100 cd         1 0VB       0.474800
     15 C15         -4.3090    -0.5600     2.0390 cd         1 0VB      -0.005400
     16 C17          2.6960    -9.0610     4.4970 c          1 0VB       0.641100
     17 C18         -1.3870    -1.5750     5.4620 c2         1 0VB       0.699800
     18 C19         -1.1980    -8.4260     5.1980 c3         1 0VB      -0.043800
     19 C20         -5.3950    -1.1600     2.8940 c3         1 0VB      -0.022800
     20 C21          3.1950   -10.3420     3.8810 c3         1 0VB      -0.166100
     21 C22          4.0840    -0.0010     2.4720 c3         1 0VB       0.127700
     22 C23         -0.2930    -3.6240     6.2720 c3         1 0VB       0.287100
     23 N24         -2.8710     0.6460     0.3110 nc         1 0VB      -0.471100
     24 N25         -2.0610    -0.8770     4.4800 ns         1 0VB      -0.473400
     25 N26         -1.2220    -1.0460     6.6410 n2         1 0VB      -0.961100
     26 N27          1.4610    -8.6080     4.2030 ns         1 0VB      -0.481100
     27 N28         -0.8880    -2.8280     5.1950 nu         1 0VB      -0.937200
     28 O29         -2.1000    -2.6520     3.1460 o          1 0VB      -0.579100
     29 O30          3.4060    -8.4370     5.2580 o          1 0VB      -0.570100
     30 O31          3.4320    -0.0010     1.2000 os         1 0VB      -0.325900
     31 S32         -4.5150     0.4280     0.6490 ss         1 0VB       0.144200
     32 Cl1          3.5020    -6.4470     4.1020 cl         1 0VB      -0.070400
     33 H1          -0.5420     0.0020    -0.9380 ha         1 0VB       0.147000
     34 H2          -0.5340    -0.0040     3.3540 ha         1 0VB       0.147000
     35 H3           1.9200    -0.0010    -0.9380 ha         1 0VB       0.145500
     36 H4           1.9290    -0.0020     3.3430 ha         1 0VB       0.145500
     37 H5          -1.6940    -5.9260     6.0940 ha         1 0VB       0.142000
     38 H6           2.1280    -4.2230     5.2360 ha         1 0VB       0.148000
     39 H7          -1.3740    -8.7410     4.1760 hc         1 0VB       0.045033
     40 H8          -0.7550    -9.2420     5.7560 hc         1 0VB       0.045033
     41 H9          -2.1390    -8.1450     5.6560 hc         1 0VB       0.045033
     42 H10         -5.2790    -2.2370     2.9220 hc         1 0VB       0.060700
     43 H11         -6.3630    -0.9120     2.4750 hc         1 0VB       0.060700
     44 H12         -5.3240    -0.7630     3.8990 hc         1 0VB       0.060700
     45 H13          2.5420   -11.1580     4.1650 hc         1 0VB       0.062033
     46 H14          3.2030   -10.2450     2.8020 hc         1 0VB       0.062033
     47 H15          4.1990   -10.5450     4.2320 hc         1 0VB       0.062033
     48 H16          5.1570     0.0330     2.3280 h1         1 0VB       0.044033
     49 H17          3.7680     0.8660     3.0390 h1         1 0VB       0.044033
     50 H18          3.8210    -0.9020     3.0120 h1         1 0VB       0.044033
     51 H19         -1.0320    -3.7950     7.0450 h1         1 0VB       0.044200
     52 H20          0.5510    -3.0900     6.6910 h1         1 0VB       0.044200
     53 H21         -2.3820     0.0540     4.6600 hn         1 0VB       0.356500
     54 H22         -0.7330    -1.5520     7.3520 hn         1 0VB       0.413400
     55 H23          0.8700    -9.1320     3.5890 hn         1 0VB       0.326500
     56 H24         -0.9020    -3.1830     4.2590 hn         1 0VB       0.479800
     57 C16         -2.3440    -1.4710     3.3050 c          1 0VB       0.716700
@<TRIPOS>BOND
     1    30    21 1   
     2    30    12 1   
     3     3    12 ar  
     4     3     1 ar  
     5    12     4 ar  
     6     1     7 ar  
     7     4     2 ar  
     8    20    16 1   
     9     7     2 ar  
    10     7    14 1   
    11    29    16 2   
    12    23    14 2   
    13    23    31 1   
    14    32    13 1   
    15    16    26 1   
    16    14     8 1   
    17    31    15 1   
    18    26    11 1   
    19    13    11 ar  
    20    13     6 ar  
    21     8    15 2   
    22     8    57 1   
    23    28    57 2   
    24    11    10 ar  
    25    15    19 1   
    26     6     9 ar  
    27    57    24 1   
    28    10    18 1   
    29    10     5 ar  
    30     9     5 ar  
    31     9    22 1   
    32    27    22 1   
    33    27    17 1   
    34    24    17 1   
    35    17    25 2   
    36     1    33 1   
    37     2    34 1   
    38     3    35 1   
    39     4    36 1   
    40     5    37 1   
    41     6    38 1   
    42    18    39 1   
    43    18    40 1   
    44    18    41 1   
    45    19    42 1   
    46    19    43 1   
    47    19    44 1   
    48    20    45 1   
    49    20    46 1   
    50    20    47 1   
    51    21    48 1   
    52    21    49 1   
    53    21    50 1   
    54    22    51 1   
    55    22    52 1   
    56    24    53 1   
    57    25    54 1   
    58    26    55 1   
    59    27    56 1   
@<TRIPOS>SUBSTRUCTURE
     1 0VB         1 TEMP              0 ****  ****    0 ROOT
