@<TRIPOS>MOLECULE
0VB
   57    59     1     0     0
SMALL
bcc


@<TRIPOS>ATOM
      1 C01          0.0000     0.0000     0.0000 ca         1 0VB      -0.039500
      2 C02          0.0040    -0.0050     2.4130 ca         1 0VB      -0.039500
      3 C03          1.3790     0.0000     0.0000 ca         1 0VB      -0.177000
      4 C04          1.3830     0.0000     2.4070 ca         1 0VB      -0.177000
      5 C05         -0.6870    -6.0300     5.7070 ca         1 0VB      -0.067000
      6 C06          1.4580    -5.0740     5.2270 ca         1 0VB      -0.074000
      7 C07         -0.6970     0.0010     1.2080 ca         1 0VB      -0.202500
      8 C08         -2.9500    -0.6930     2.2130 cc         1 0VB      -0.332900
      9 C09          0.1730    -4.9460     5.7190 ca         1 0VB      -0.114300
     10 C10         -0.2620    -7.2450     5.2060 ca         1 0VB      -0.104300
     11 C11          1.0280    -7.3780     4.7110 ca         1 0VB      -0.077400
     12 C12          2.0740     0.0000     1.2020 ca         1 0VB       0.170100
     13 C13          1.8880    -6.2860     4.7200 ca         1 0VB      -0.038600
     14 C14         -2.1790     0.0080     1.2100 cc         1 0VB       0.488800
     15 C15         -4.3090    -0.5600     2.0390 cd         1 0VB       0.043600
     16 C17          2.6960    -9.0610     4.4970 c          1 0VB       0.537100
     17 C18         -1.3870    -1.5750     5.4620 c2         1 0VB       0.398800
     18 C19         -1.1980    -8.4260     5.1980 c3         1 0VB       0.065200
     19 C20         -5.3950    -1.1600     2.8940 c3         1 0VB       0.097200
     20 C21          3.1950   -10.3420     3.8810 c3         1 0VB      -0.063100
     21 C22          4.0840    -0.0010     2.4720 c3         1 0VB       0.242700
     22 C23         -0.2930    -3.6240     6.2720 c3         1 0VB       0.242100
     23 N24         -2.8710     0.6460     0.3110 nd         1 0VB      -0.388100
     24 N25         -2.0610    -0.8770     4.4800 ns         1 0VB      -0.098400
     25 N26         -1.2220    -1.0460     6.6410 n2         1 0VB      -0.843100
     26 N27          1.4610    -8.6080     4.2030 ns         1 0VB      -0.040100
     27 N28         -0.8880    -2.8280     5.1950 nu         1 0VB      -0.508200
     28 O29         -2.1000    -2.6520     3.1460 o          1 0VB      -0.616100
     29 O30          3.4060    -8.4370     5.2580 o          1 0VB      -0.620100
     30 O31          3.4320    -0.0010     1.2000 os         1 0VB      -0.304900
     31 S32         -4.5150     0.4280     0.6490 ss         1 0VB       0.004200
     32 Cl1          3.5020    -6.4470     4.1020 cl         1 0VB       0.029600
     33 H1          -0.5420     0.0020    -0.9380 ha         1 0VB       0.113000
     34 H2          -0.5340    -0.0040     3.3540 ha         1 0VB       0.113000
     35 H3           1.9200    -0.0010    -0.9380 ha         1 0VB       0.123500
     36 H4           1.9290    -0.0020     3.3430 ha         1 0VB       0.123500
     37 H5          -1.6940    -5.9260     6.0940 ha         1 0VB       0.114000
     38 H6           2.1280    -4.2230     5.2360 ha         1 0VB       0.118000
     39 H7          -1.3850    -8.7320     4.1750 hc         1 0VB       0.008700
     40 H8          -2.1340    -8.1490     5.6680 hc         1 0VB       0.008700
     41 H9          -0.7500    -9.2470     5.7440 hc         1 0VB       0.008700
     42 H10         -5.2760    -2.2370     2.9270 hc         1 0VB       0.021367
     43 H11         -6.3630    -0.9170     2.4720 hc         1 0VB       0.021367
     44 H12         -5.3270    -0.7590     3.8980 hc         1 0VB       0.021367
     45 H13          2.5450   -11.1590     4.1690 hc         1 0VB       0.023033
     46 H14          4.2010   -10.5420     4.2280 hc         1 0VB       0.023033
     47 H15          3.1980   -10.2470     2.8020 hc         1 0VB       0.023033
     48 H16          3.8100    -0.8960     3.0180 h1         1 0VB       0.000033
     49 H17          5.1580     0.0200     2.3280 h1         1 0VB       0.000033
     50 H18          3.7780     0.8730     3.0340 h1         1 0VB       0.000033
     51 H19          0.5510    -3.0900     6.6910 h1         1 0VB       0.027200
     52 H20         -1.0320    -3.7950     7.0450 h1         1 0VB       0.027200
     53 H21         -2.3790     0.0560     4.6580 hn         1 0VB       0.190500
     54 H22         -1.5850    -0.1330     6.8350 hn         1 0VB       0.326400
     55 H23          0.8710    -9.1300     3.5870 hn         1 0VB       0.171500
     56 H24         -0.9020    -3.1830     4.2590 hn         1 0VB       0.361800
     57 C16         -2.3440    -1.4710     3.3050 c          1 0VB       0.636700
@<TRIPOS>BOND
     1     1     3 ar  
     2     1     7 ar  
     3     1    33 1   
     4     2     4 ar  
     5     2     7 ar  
     6     2    34 1   
     7     3    12 ar  
     8     3    35 1   
     9     4    12 ar  
    10     4    36 1   
    11     5     9 ar  
    12     5    10 ar  
    13     5    37 1   
    14     6     9 ar  
    15     6    13 ar  
    16     6    38 1   
    17     7    14 1   
    18     8    14 1   
    19     8    15 2   
    20     8    57 1   
    21     9    22 1   
    22    10    11 ar  
    23    10    18 1   
    24    11    13 ar  
    25    11    26 1   
    26    12    30 1   
    27    13    32 1   
    28    14    23 2   
    29    15    19 1   
    30    15    31 1   
    31    16    20 1   
    32    16    26 1   
    33    16    29 2   
    34    17    24 1   
    35    17    25 2   
    36    17    27 1   
    37    18    39 1   
    38    18    40 1   
    39    18    41 1   
    40    19    42 1   
    41    19    43 1   
    42    19    44 1   
    43    20    45 1   
    44    20    46 1   
    45    20    47 1   
    46    21    30 1   
    47    21    48 1   
    48    21    49 1   
    49    21    50 1   
    50    22    27 1   
    51    22    51 1   
    52    22    52 1   
    53    23    31 1   
    54    24    53 1   
    55    24    57 1   
    56    25    54 1   
    57    26    55 1   
    58    27    56 1   
    59    28    57 2   
@<TRIPOS>SUBSTRUCTURE
     1 0VB         1 TEMP              0 ****  ****    0 ROOT
