@<TRIPOS>MOLECULE
molecule
   41    43     1     0     0
SMALL
bcc


@<TRIPOS>ATOM
      1 C18          0.0000     0.0000     0.0000 c3         1 0VC       0.130700
      2 O17          1.4300     0.0000     0.0000 os         1 0VC      -0.433600
      3 C16          2.0110     0.0000     1.3050 c3         1 0VC       0.139400
      4 C15          3.5360    -0.0010     1.1850 c3         1 0VC      -0.047400
      5 C13          4.1580    -0.0010     2.5820 cx         1 0VC      -0.121700
      6 C12          5.6810     0.1170     2.6780 cx         1 0VC      -0.085400
      7 C14          4.9960    -1.2180     2.9820 cx         1 0VC      -0.129400
      8 C6           6.2470     0.8900     3.8400 ca         1 0VC      -0.132600
      9 C5           5.9900     0.4900     5.1380 ca         1 0VC       0.373200
     10 N4           6.4800     1.1600     6.1630 nb         1 0VC      -0.653000
     11 C3           7.2310     2.2310     5.9980 ca         1 0VC       0.326200
     12 C2           7.5320     2.6940     4.7250 ca         1 0VC       0.026800
     13 C1           7.0370     2.0080     3.6210 ca         1 0VC      -0.123000
     14 O7           8.3110     3.7960     4.5590 os         1 0VC      -0.327900
     15 C39          8.7800     4.4430     5.7430 c3         1 0VC       0.153400
     16 C8           9.6340     5.6530     5.3590 cy         1 0VC       0.116500
     17 C9          10.2920     6.3550     6.5610 cy         1 0VC      -0.101400
     18 C10          9.9100     7.6780     5.8730 cy         1 0VC       0.106800
     19 N11          8.8560     6.9000     5.1840 n6         1 0VC      -0.752200
     20 H1          -0.3610    -0.8530     0.5620 h1         1 0VC       0.029700
     21 H2          -0.3610    -0.0600    -1.0200 h1         1 0VC       0.029700
     22 H3          -0.3610     0.9130     0.4580 h1         1 0VC       0.029700
     23 H4           1.6920     0.8850     1.8430 h1         1 0VC       0.025700
     24 H5           1.6910    -0.8840     1.8430 h1         1 0VC       0.025700
     25 H6           3.8570     0.8840     0.6480 hc         1 0VC       0.057700
     26 H7           3.8560    -0.8850     0.6470 hc         1 0VC       0.057700
     27 H8           3.6150     0.4630     3.3970 hc         1 0VC       0.087700
     28 H9           6.1930     0.1570     1.7240 hc         1 0VC       0.091700
     29 H10          4.9520    -1.4920     4.0290 hc         1 0VC       0.079700
     30 H11          5.1040    -1.9820     2.2220 hc         1 0VC       0.079700
     31 H12          5.3770    -0.3850     5.3160 h4         1 0VC       0.025100
     32 H13          7.6140     2.7560     6.8640 h4         1 0VC       0.025100
     33 H14          7.2550     2.3450     2.6150 ha         1 0VC       0.152000
     34 H15          7.9340     4.7700     6.3350 h1         1 0VC       0.048200
     35 H16          9.3780     3.7480     6.3210 h1         1 0VC       0.048200
     36 H17         10.3270     5.4730     4.5470 h1         1 0VC       0.064700
     37 H18          9.7620     6.1910     7.4920 hc         1 0VC       0.062200
     38 H19         11.3620     6.1960     6.6130 hc         1 0VC       0.062200
     39 H20         10.6760     8.0450     5.2010 h1         1 0VC       0.058200
     40 H21          9.5140     8.4160     6.5600 h1         1 0VC       0.058200
     41 H22          8.8380     7.1480     4.2140 hn         1 0VC       0.335800
@<TRIPOS>BOND
     1    19    16 1
     2    19    18 1
     3    16    15 1
     4    16    17 1
     5    18    17 1
     6    15    14 1
     7    14    12 1
     8    12    13 ar
     9    12    11 ar
    10     7     5 1
    11     7     6 1
    12    13     8 ar
    13    11    10 ar
    14     5     6 1
    15     5     4 1
    16     8     6 1
    17     8     9 ar
    18    10     9 ar
    19     4     3 1
    20     3     2 1
    21     2     1 1
    22     1    20 1
    23     1    21 1
    24     1    22 1
    25     3    23 1
    26     3    24 1
    27     4    25 1
    28     4    26 1
    29     5    27 1
    30     6    28 1
    31     7    29 1
    32     7    30 1
    33     9    31 1
    34    11    32 1
    35    13    33 1
    36    15    34 1
    37    15    35 1
    38    16    36 1
    39    17    37 1
    40    17    38 1
    41    18    39 1
    42    18    40 1
    43    19    41 1
@<TRIPOS>SUBSTRUCTURE
     1 0VC         1 TEMP              0 ****  ****    0 ROOT
