@<TRIPOS>MOLECULE
0VC
   41    43     1     0     0
SMALL
bcc


@<TRIPOS>ATOM
      1 C18          0.0000     0.0000     0.0000 c3         1 0VC       0.255700
      2 O17          1.4300     0.0000     0.0000 os         1 0VC      -0.420600
      3 C16          2.0110     0.0000     1.3050 c3         1 0VC       0.212400
      4 C15          3.5360    -0.0010     1.1850 c3         1 0VC       0.004600
      5 C13          4.1580    -0.0010     2.5820 cx         1 0VC      -0.099700
      6 C12          5.6810     0.1170     2.6780 cx         1 0VC      -0.051400
      7 C14          4.9960    -1.2180     2.9820 cx         1 0VC      -0.083400
      8 C6           6.2470     0.8900     3.8400 ca         1 0VC      -0.123600
      9 C5           5.9900     0.4900     5.1380 ca         1 0VC       0.341200
     10 N4           6.4800     1.1600     6.1630 nb         1 0VC      -0.537000
     11 C3           7.2310     2.2310     5.9980 ca         1 0VC       0.290200
     12 C2           7.5320     2.6940     4.7250 ca         1 0VC       0.043800
     13 C1           7.0370     2.0080     3.6210 ca         1 0VC      -0.111000
     14 O7           8.3110     3.7960     4.5590 os         1 0VC      -0.300900
     15 C39          8.7800     4.4430     5.7430 c3         1 0VC       0.213400
     16 C8           9.6340     5.6530     5.3590 cy         1 0VC       0.089500
     17 C9          10.2920     6.3550     6.5610 cy         1 0VC      -0.046400
     18 C10          9.9100     7.6780     5.8730 cy         1 0VC       0.124800
     19 N11          8.8560     6.9000     5.1840 n6         1 0VC      -0.573200
     20 H1          -0.3610    -0.8530     0.5620 h1         1 0VC      -0.013633
     21 H2          -0.3610    -0.0600    -1.0200 h1         1 0VC      -0.013633
     22 H3          -0.3610     0.9130     0.4580 h1         1 0VC      -0.013633
     23 H4           1.6920     0.8850     1.8430 h1         1 0VC      -0.008300
     24 H5           1.6910    -0.8840     1.8430 h1         1 0VC      -0.008300
     25 H6           3.8570     0.8840     0.6480 hc         1 0VC       0.025200
     26 H7           3.8560    -0.8850     0.6470 hc         1 0VC       0.025200
     27 H8           3.6150     0.4630     3.3970 hc         1 0VC       0.064700
     28 H9           6.1930     0.1570     1.7240 hc         1 0VC       0.065700
     29 H10          4.9520    -1.4920     4.0290 hc         1 0VC       0.053200
     30 H11          5.1040    -1.9820     2.2220 hc         1 0VC       0.053200
     31 H12          5.3770    -0.3850     5.3160 h4         1 0VC      -0.008900
     32 H13          7.6140     2.7560     6.8640 h4         1 0VC      -0.005900
     33 H14          7.2550     2.3450     2.6150 ha         1 0VC       0.124000
     34 H15          7.9340     4.7700     6.3350 h1         1 0VC       0.013200
     35 H16          9.3780     3.7480     6.3210 h1         1 0VC       0.013200
     36 H17         10.3270     5.4730     4.5470 h1         1 0VC       0.039700
     37 H18          9.7620     6.1910     7.4920 hc         1 0VC       0.032200
     38 H19         11.3620     6.1960     6.6130 hc         1 0VC       0.032200
     39 H20         10.6760     8.0450     5.2010 h1         1 0VC       0.024700
     40 H21          9.5140     8.4160     6.5600 h1         1 0VC       0.024700
     41 H22          8.8380     7.1480     4.2140 hn         1 0VC       0.249800
@<TRIPOS>BOND
     1     1     2 1   
     2     1    20 1   
     3     1    21 1   
     4     1    22 1   
     5     2     3 1   
     6     3     4 1   
     7     3    23 1   
     8     3    24 1   
     9     4     5 1   
    10     4    25 1   
    11     4    26 1   
    12     5     6 1   
    13     5     7 1   
    14     5    27 1   
    15     6     7 1   
    16     6     8 1   
    17     6    28 1   
    18     7    29 1   
    19     7    30 1   
    20     8     9 ar  
    21     8    13 ar  
    22     9    10 ar  
    23     9    31 1   
    24    10    11 ar  
    25    11    12 ar  
    26    11    32 1   
    27    12    13 ar  
    28    12    14 1   
    29    13    33 1   
    30    14    15 1   
    31    15    16 1   
    32    15    34 1   
    33    15    35 1   
    34    16    17 1   
    35    16    19 1   
    36    16    36 1   
    37    17    18 1   
    38    17    37 1   
    39    17    38 1   
    40    18    19 1   
    41    18    39 1   
    42    18    40 1   
    43    19    41 1   
@<TRIPOS>SUBSTRUCTURE
     1 0VC         1 TEMP              0 ****  ****    0 ROOT
