@<TRIPOS>MOLECULE
0VC
   41    43     1     0     0
SMALL
bcc


@<TRIPOS>ATOM
      1 C18          0.1640     0.8900     1.3340 c3         1 0VC       0.115700
      2 O17          1.3480     0.4620     0.6850 os         1 0VC      -0.423600
      3 C16          2.0830    -0.4850     1.4590 c3         1 0VC       0.129400
      4 C15          3.3090    -0.8770     0.6500 c3         1 0VC      -0.054400
      5 C13          4.3140     0.2260     0.5940 cx         1 0VC      -0.106700
      6 C12          5.7240    -0.0940     0.1370 cx         1 0VC      -0.082400
      7 C14          5.4500     0.2730     1.5750 cx         1 0VC      -0.122400
      8 C6           6.4530     0.8190    -0.7460 ca         1 0VC      -0.120600
      9 C5           7.3490     0.2950    -1.7040 ca         1 0VC       0.358200
     10 N4           8.0640     1.0560    -2.5560 nb         1 0VC      -0.637000
     11 C3           7.9160     2.3860    -2.4890 ca         1 0VC       0.369200
     12 C2           7.0360     3.0080    -1.5610 ca         1 0VC       0.018800
     13 C1           6.2980     2.2110    -0.6790 ca         1 0VC      -0.174000
     14 O7           6.9840     4.3810    -1.6380 os         1 0VC      -0.309900
     15 C39          6.1920     5.0250    -0.6330 c3         1 0VC       0.143400
     16 C8           6.3600     6.5290    -0.7890 cy         1 0VC       0.134500
     17 C9           6.5430     7.0730    -2.2350 cy         1 0VC      -0.108400
     18 C10          7.8890     7.6670    -1.7540 cy         1 0VC       0.130800
     19 N11          7.7000     7.0610    -0.4180 n6         1 0VC      -0.781200
     20 H1           0.4030     1.3940     2.3030 h1         1 0VC       0.032033
     21 H2          -0.5220     0.0250     1.5150 h1         1 0VC       0.032033
     22 H3          -0.3010     1.6150     0.6190 h1         1 0VC       0.032033
     23 H4           2.3760    -0.0230     2.4390 h1         1 0VC       0.028200
     24 H5           1.4400    -1.3850     1.6540 h1         1 0VC       0.028200
     25 H6           3.7550    -1.7970     1.1130 hc         1 0VC       0.056200
     26 H7           2.9910    -1.1340    -0.3960 hc         1 0VC       0.056200
     27 H8           3.8630     1.1850     0.2680 hc         1 0VC       0.096700
     28 H9           5.9500    -1.1620    -0.0740 hc         1 0VC       0.086700
     29 H10          5.5360    -0.5170     2.3420 hc         1 0VC       0.073200
     30 H11          5.7920     1.2540     1.9510 hc         1 0VC       0.073200
     31 H12          7.5030    -0.7940    -1.7950 h4         1 0VC       0.022100
     32 H13          8.5090     2.9980    -3.1890 h4         1 0VC       0.036100
     33 H14          5.6080     2.6530     0.0520 ha         1 0VC       0.142000
     34 H15          6.5260     4.6930     0.3850 h1         1 0VC       0.045700
     35 H16          5.1150     4.7520    -0.7940 h1         1 0VC       0.045700
     36 H17          5.5080     7.0130    -0.2410 h1         1 0VC       0.048700
     37 H18          5.7840     7.8220    -2.5390 hc         1 0VC       0.064700
     38 H19          6.6380     6.2840    -3.0100 hc         1 0VC       0.064700
     39 H20          7.9370     8.7810    -1.7780 h1         1 0VC       0.055200
     40 H21          8.7920     7.2400    -2.2540 h1         1 0VC       0.055200
     41 H22          7.6540     7.7340     0.3200 hn         1 0VC       0.346800
@<TRIPOS>BOND
     1     1     2 1   
     2     1    20 1   
     3     1    21 1   
     4     1    22 1   
     5     2     3 1   
     6     3     4 1   
     7     3    23 1   
     8     3    24 1   
     9     4     5 1   
    10     4    25 1   
    11     4    26 1   
    12     5     6 1   
    13     5     7 1   
    14     5    27 1   
    15     6     7 1   
    16     6     8 1   
    17     6    28 1   
    18     7    29 1   
    19     7    30 1   
    20     8     9 ar  
    21     8    13 ar  
    22     9    10 ar  
    23     9    31 1   
    24    10    11 ar  
    25    11    12 ar  
    26    11    32 1   
    27    12    13 ar  
    28    12    14 1   
    29    13    33 1   
    30    14    15 1   
    31    15    16 1   
    32    15    34 1   
    33    15    35 1   
    34    16    17 1   
    35    16    19 1   
    36    16    36 1   
    37    17    18 1   
    38    17    37 1   
    39    17    38 1   
    40    18    19 1   
    41    18    39 1   
    42    18    40 1   
    43    19    41 1   
@<TRIPOS>SUBSTRUCTURE
     1 0VC         1 TEMP              0 ****  ****    0 ROOT
