@<TRIPOS>MOLECULE
0VD
   47    49     1     0     0
SMALL
bcc


@<TRIPOS>ATOM
      1 C1          -1.8290    -2.4300     1.1630 cc         1 0VD      -0.188600
      2 N1          -0.6790    -3.1570     0.8700 na         1 0VD      -0.297900
      3 C2           0.4030    -2.4650     1.4210 cc         1 0VD       0.447400
      4 N2          -0.0090    -1.3430     2.0460 nd         1 0VD      -0.764000
      5 C12         -1.9570     5.6990     0.2190 ca         1 0VD      -0.177500
      6 C13         -2.6120     4.8960     1.1500 ca         1 0VD      -0.089000
      7 C4          -2.2660    -0.2530     2.4730 c3         1 0VD      -0.102700
      8 C5          -1.6200     1.1390     2.4400 c3         1 0VD       0.010500
      9 C6          -2.6450     2.1760     2.9300 c          1 0VD       0.561100
     10 C8          -2.8420     3.5420     0.8880 ca         1 0VD      -0.177300
     11 C10         -1.7730     3.7780    -1.2740 ca         1 0VD      -0.177500
     12 C9          -2.4280     2.9950    -0.3350 ca         1 0VD      -0.089000
     13 C7          -3.5730     2.7050     1.8780 c3         1 0VD      -0.110100
     14 C11         -1.5320     5.1400    -0.9940 ca         1 0VD       0.161100
     15 C19         -3.7310     8.8440    -2.9700 ca         1 0VD      -0.126500
     16 C18         -3.8750     9.8760    -2.0430 ca         1 0VD      -0.112000
     17 C17         -2.9460    10.0240    -1.0130 ca         1 0VD      -0.126500
     18 C20         -2.6560     7.9610    -2.8700 ca         1 0VD      -0.113000
     19 C16         -1.8740     9.1390    -0.9070 ca         1 0VD      -0.113000
     20 C15         -1.7240     8.1040    -1.8370 ca         1 0VD      -0.144300
     21 C14         -0.5450     7.1960    -1.7540 c3         1 0VD       0.174700
     22 N3          -0.3670     1.1950     3.2600 nz         1 0VD      -0.837600
     23 C3          -1.4040    -1.3020     1.8960 cd         1 0VD       0.235600
     24 O1          -2.6520     2.5160     4.1130 o          1 0VD      -0.499100
     25 O2          -0.8680     5.8190    -1.9860 os         1 0VD      -0.317900
     26 H1          -2.8240    -2.7480     0.8500 h4         1 0VD       0.201000
     27 H2          -0.6400    -4.0100     0.3710 hn         1 0VD       0.328700
     28 H3           1.4410    -2.8130     1.3420 h5         1 0VD       0.086100
     29 H5          -1.8100     6.7710     0.4240 ha         1 0VD       0.162000
     30 H6          -2.9630     5.3410     2.0950 ha         1 0VD       0.136500
     31 H7          -2.5380    -0.5230     3.5320 hc         1 0VD       0.090700
     32 H8          -3.2230    -0.1940     1.8830 hc         1 0VD       0.090700
     33 H9          -1.3290     1.3920     1.3720 hx         1 0VD       0.137700
     34 H10         -1.4520     3.3620    -2.2410 ha         1 0VD       0.162000
     35 H11         -2.6430     1.9410    -0.5690 ha         1 0VD       0.136500
     36 H12         -4.0760     1.8390     1.3670 hc         1 0VD       0.094700
     37 H13         -4.3750     3.3160     2.3810 hc         1 0VD       0.094700
     38 H16         -3.0560    10.8410    -0.2850 ha         1 0VD       0.141000
     39 H17         -2.5340     7.1460    -3.6000 ha         1 0VD       0.136000
     40 H18         -1.1410     9.2620    -0.0960 ha         1 0VD       0.136000
     41 H19         -0.0080     7.3010    -0.7740 h1         1 0VD       0.070700
     42 H20          0.1690     7.4090    -2.6020 h1         1 0VD       0.070700
     43 H21          0.1000     2.0910     3.1110 hn         1 0VD       0.471467
     44 H22         -0.6110     1.1090     4.2530 hn         1 0VD       0.471467
     45 H14         -4.4610     8.7280    -3.7850 ha         1 0VD       0.141000
     46 H33          0.2620     0.4150     2.9880 hn         1 0VD       0.471467
     47 H15         -4.7200    10.5770    -2.1270 ha         1 0VD       0.142000
@<TRIPOS>BOND
     1     1     2 1   
     2     1    23 2   
     3     1    26 1   
     4     2     3 1   
     5     2    27 1   
     6     3     4 2   
     7     3    28 1   
     8     4    23 1   
     9     5     6 ar  
    10     5    14 ar  
    11     5    29 1   
    12     6    10 ar  
    13     6    30 1   
    14     7     8 1   
    15     7    23 1   
    16     7    31 1   
    17     7    32 1   
    18     8     9 1   
    19     8    22 1   
    20     8    33 1   
    21     9    13 1   
    22     9    24 2   
    23    10    12 ar  
    24    10    13 1   
    25    11    12 ar  
    26    11    14 ar  
    27    11    34 1   
    28    12    35 1   
    29    13    36 1   
    30    13    37 1   
    31    14    25 1   
    32    15    16 ar  
    33    15    18 ar  
    34    15    45 1   
    35    16    17 ar  
    36    16    47 1   
    37    17    19 ar  
    38    17    38 1   
    39    18    20 ar  
    40    18    39 1   
    41    19    20 ar  
    42    19    40 1   
    43    20    21 1   
    44    21    25 1   
    45    21    41 1   
    46    21    42 1   
    47    22    43 1   
    48    22    44 1   
    49    22    46 1   
@<TRIPOS>SUBSTRUCTURE
     1 0VD         1 TEMP              0 ****  ****    0 ROOT
