@<TRIPOS>MOLECULE
molecule
   47    49     1     0     0
SMALL
bcc


@<TRIPOS>ATOM
      1 C1           0.0000     0.0000     0.0000 cc         1 0VD      -0.241600
      2 N1           1.3690     0.0000     0.0000 na         1 0VD      -0.280900
      3 C2           1.7680     0.0000     1.2910 cc         1 0VD       0.432400
      4 N2           0.7100     0.0000     2.0560 nd         1 0VD      -0.710000
      5 C12         -6.9060    -1.5950     6.0500 ca         1 0VD      -0.182500
      6 C13         -5.5810    -1.4230     5.6970 ca         1 0VD      -0.074500
      7 C4          -1.8140     0.0020     1.7820 c3         1 0VD      -0.091700
      8 C5          -2.0250    -1.1810     2.7320 c3         1 0VD      -0.006500
      9 C6          -3.4100    -1.1100     3.3210 c          1 0VD       0.538100
     10 C8          -5.2340    -0.4730     4.7550 ca         1 0VD      -0.143300
     11 C10         -7.5360     0.1390     4.5130 ca         1 0VD      -0.182500
     12 C9          -6.2100     0.3080     4.1640 ca         1 0VD      -0.074500
     13 C7          -3.7200    -0.1030     4.3980 c3         1 0VD      -0.103100
     14 C11         -7.8880    -0.8180     5.4540 ca         1 0VD       0.165100
     15 C19        -13.2400    -2.1640     6.6070 ca         1 0VD      -0.128500
     16 C18        -13.5990    -1.5340     7.7830 ca         1 0VD      -0.109000
     17 C17        -12.6240    -1.0450     8.6310 ca         1 0VD      -0.128500
     18 C20        -11.9030    -2.3100     6.2810 ca         1 0VD      -0.101500
     19 C16        -11.2880    -1.1870     8.3030 ca         1 0VD      -0.101500
     20 C15        -10.9280    -1.8270     7.1320 ca         1 0VD      -0.109300
     21 C14         -9.4810    -1.9900     6.7730 c3         1 0VD       0.181700
     22 N3          -1.8720    -2.4380     1.9890 nz         1 0VD      -0.796600
     23 C3          -0.3900     0.0010     1.2890 cd         1 0VD       0.230600
     24 O1          -4.2710    -1.8610     2.9300 o          1 0VD      -0.486100
     25 O2          -9.1920    -0.9850     5.7990 os         1 0VD      -0.309900
     26 H1          -0.6460     0.0000    -0.8700 h4         1 0VD       0.188000
     27 H2           1.9630    -0.0000    -0.8050 hn         1 0VD       0.324700
     28 H3           2.7950    -0.0000     1.6340 h5         1 0VD       0.090100
     29 H5          -7.1780    -2.3410     6.7860 ha         1 0VD       0.152000
     30 H6          -4.8140    -2.0320     6.1610 ha         1 0VD       0.127000
     31 H7          -2.0130     0.9270     2.3080 hc         1 0VD       0.091200
     32 H8          -2.4880    -0.0870     0.9390 hc         1 0VD       0.091200
     33 H9          -1.2910    -1.1400     3.5280 hx         1 0VD       0.145700
     34 H10         -8.3010     0.7490     4.0480 ha         1 0VD       0.152000
     35 H11         -5.9340     1.0530     3.4280 ha         1 0VD       0.127000
     36 H12         -3.0800    -0.2810     5.2540 hc         1 0VD       0.089200
     37 H13         -3.5460     0.8960     4.0190 hc         1 0VD       0.089200
     38 H16        -12.9070    -0.5480     9.5510 ha         1 0VD       0.136500
     39 H17        -11.6210    -2.8080     5.3610 ha         1 0VD       0.132000
     40 H18        -10.5240    -0.8060     8.9690 ha         1 0VD       0.132000
     41 H19         -9.3540    -2.8890     6.1820 h1         1 0VD       0.047200
     42 H20         -8.8910    -2.0670     7.6780 h1         1 0VD       0.047200
     43 H21         -2.1300    -3.2070     2.5760 hn         1 0VD       0.458800
     44 H22         -2.4620    -2.4230     1.1800 hn         1 0VD       0.458800
     45 H14        -14.0040    -2.5450     5.9410 ha         1 0VD       0.136500
     46 H33         -0.9080    -2.5700     1.7510 hn         1 0VD       0.458800
     47 H15        -14.6450    -1.4220     8.0390 ha         1 0VD       0.137000
@<TRIPOS>BOND
     1    18    15 ar
     2    18    20 ar
     3    15    16 ar
     4    25    21 1
     5    25    14 1
     6    21    20 1
     7    20    19 ar
     8    16    17 ar
     9    11    14 ar
    10    11    12 ar
    11    14     5 ar
    12     1     2 1
    13     1    23 2
    14    19    17 ar
    15    12    10 ar
    16     2     3 1
    17     5     6 ar
    18    23     7 1
    19    23     4 1
    20     7     8 1
    21     3     4 2
    22    10     6 ar
    23    10    13 1
    24    13     9 1
    25    24     9 2
    26     9     8 1
    27     8    22 1
    28     1    26 1
    29     2    27 1
    30     3    28 1
    31     5    29 1
    32     6    30 1
    33     7    31 1
    34     7    32 1
    35     8    33 1
    36    11    34 1
    37    12    35 1
    38    13    36 1
    39    13    37 1
    40    15    45 1
    41    16    47 1
    42    17    38 1
    43    18    39 1
    44    19    40 1
    45    21    41 1
    46    21    42 1
    47    22    43 1
    48    22    44 1
    49    46    22 1
@<TRIPOS>SUBSTRUCTURE
     1 0VD         1 TEMP              0 ****  ****    0 ROOT
