@<TRIPOS>MOLECULE
0VD
   47    49     1     0     0
SMALL
bcc


@<TRIPOS>ATOM
      1 C1           0.0000     0.0000     0.0000 cc         1 0VD      -0.409600
      2 N1           1.3690     0.0000     0.0000 na         1 0VD       0.282100
      3 C2           1.7680     0.0000     1.2910 cc         1 0VD       0.244400
      4 N2           0.7100     0.0000     2.0560 nd         1 0VD      -0.618000
      5 C12         -6.9060    -1.5950     6.0500 ca         1 0VD      -0.167000
      6 C13         -5.5810    -1.4230     5.6970 ca         1 0VD      -0.043000
      7 C4          -1.8140     0.0020     1.7820 c3         1 0VD      -0.004700
      8 C5          -2.0250    -1.1810     2.7320 c3         1 0VD      -0.193500
      9 C6          -3.4100    -1.1100     3.3210 c          1 0VD       0.588100
     10 C8          -5.2340    -0.4730     4.7550 ca         1 0VD      -0.159300
     11 C10         -7.5360     0.1390     4.5130 ca         1 0VD      -0.167000
     12 C9          -6.2100     0.3080     4.1640 ca         1 0VD      -0.043000
     13 C7          -3.7200    -0.1030     4.3980 c3         1 0VD      -0.015100
     14 C11         -7.8880    -0.8180     5.4540 ca         1 0VD       0.175100
     15 C19        -13.2400    -2.1640     6.6070 ca         1 0VD      -0.101500
     16 C18        -13.5990    -1.5340     7.7830 ca         1 0VD      -0.081000
     17 C17        -12.6240    -1.0450     8.6310 ca         1 0VD      -0.101500
     18 C20        -11.9030    -2.3100     6.2810 ca         1 0VD      -0.073500
     19 C16        -11.2880    -1.1870     8.3030 ca         1 0VD      -0.073500
     20 C15        -10.9280    -1.8270     7.1320 ca         1 0VD      -0.130300
     21 C14         -9.4810    -1.9900     6.7730 c3         1 0VD       0.260700
     22 N3          -1.8720    -2.4380     1.9890 nz         1 0VD       0.090400
     23 C3          -0.3900     0.0010     1.2890 cd         1 0VD       0.188600
     24 O1          -4.2710    -1.8610     2.9300 o          1 0VD      -0.518100
     25 O2          -9.1920    -0.9850     5.7990 os         1 0VD      -0.288900
     26 H1          -0.6460     0.0000    -0.8700 h4         1 0VD       0.164000
     27 H2           1.9630    -0.0000    -0.8050 hn         1 0VD       0.142700
     28 H3           2.7950    -0.0000     1.6340 h5         1 0VD       0.043100
     29 H5          -7.1780    -2.3410     6.7860 ha         1 0VD       0.127500
     30 H6          -4.8140    -2.0320     6.1610 ha         1 0VD       0.098000
     31 H7          -2.0130     0.9270     2.3080 hc         1 0VD       0.052200
     32 H8          -2.4880    -0.0870     0.9390 hc         1 0VD       0.052200
     33 H9          -1.2910    -1.1400     3.5280 hx         1 0VD       0.121700
     34 H10         -8.3010     0.7490     4.0480 ha         1 0VD       0.127500
     35 H11         -5.9340     1.0530     3.4280 ha         1 0VD       0.098000
     36 H12         -3.0800    -0.2810     5.2540 hc         1 0VD       0.050700
     37 H13         -3.5460     0.8960     4.0190 hc         1 0VD       0.050700
     38 H16        -12.9070    -0.5480     9.5510 ha         1 0VD       0.107500
     39 H17        -11.6210    -2.8080     5.3610 ha         1 0VD       0.104500
     40 H18        -10.5240    -0.8060     8.9690 ha         1 0VD       0.104500
     41 H19         -9.3540    -2.8890     6.1820 h1         1 0VD       0.009200
     42 H20         -8.8910    -2.0670     7.6780 h1         1 0VD       0.009200
     43 H21         -2.1300    -3.2070     2.5760 hn         1 0VD       0.226467
     44 H22         -2.4620    -2.4230     1.1800 hn         1 0VD       0.226467
     45 H14        -14.0040    -2.5450     5.9410 ha         1 0VD       0.107500
     46 H33         -0.9080    -2.5700     1.7510 hn         1 0VD       0.226467
     47 H15        -14.6450    -1.4220     8.0390 ha         1 0VD       0.107000
@<TRIPOS>BOND
     1     1     2 1   
     2     1    23 2   
     3     1    26 1   
     4     2     3 1   
     5     2    27 1   
     6     3     4 2   
     7     3    28 1   
     8     4    23 1   
     9     5     6 ar  
    10     5    14 ar  
    11     5    29 1   
    12     6    10 ar  
    13     6    30 1   
    14     7     8 1   
    15     7    23 1   
    16     7    31 1   
    17     7    32 1   
    18     8     9 1   
    19     8    22 1   
    20     8    33 1   
    21     9    13 1   
    22     9    24 2   
    23    10    12 ar  
    24    10    13 1   
    25    11    12 ar  
    26    11    14 ar  
    27    11    34 1   
    28    12    35 1   
    29    13    36 1   
    30    13    37 1   
    31    14    25 1   
    32    15    16 ar  
    33    15    18 ar  
    34    15    45 1   
    35    16    17 ar  
    36    16    47 1   
    37    17    19 ar  
    38    17    38 1   
    39    18    20 ar  
    40    18    39 1   
    41    19    20 ar  
    42    19    40 1   
    43    20    21 1   
    44    21    25 1   
    45    21    41 1   
    46    21    42 1   
    47    22    43 1   
    48    22    44 1   
    49    22    46 1   
@<TRIPOS>SUBSTRUCTURE
     1 0VD         1 TEMP              0 ****  ****    0 ROOT
