@<TRIPOS>MOLECULE
0VE
   52    55     1     0     0
SMALL
bcc


@<TRIPOS>ATOM
      1 N1           0.0000     0.0000     0.0000 na         1 0VE       0.698700
      2 C2           1.3720     0.0000     0.0000 cc         1 0VE      -0.420600
      3 C3           2.0560     0.0000     1.2420 cc         1 0VE       0.571200
      4 C4          -0.6710     0.0050     1.2040 cc         1 0VE      -0.434600
      5 N5           1.3680    -0.0000     2.3690 nd         1 0VE      -0.716000
      6 C6           0.0350     0.0040     2.3700 cd         1 0VE       0.496200
      7 N7           1.7810    -0.0000    -1.2560 nd         1 0VE      -0.235600
      8 C8          -2.1470     0.0140     1.2310 ca         1 0VE       0.006000
      9 N9           3.4400    -0.0010     1.2740 nu         1 0VE      -0.236300
     10 C10         -0.4010    -0.0000    -1.2990 cc         1 0VE      -0.437100
     11 C11          0.7190     0.0000    -2.0620 cd         1 0VE       0.036600
     12 C12          5.4480    -0.3690     4.9090 ca         1 0VE       0.079600
     13 C13         -2.8330     1.1120     1.7520 ca         1 0VE      -0.117000
     14 N14          6.1200    -0.4890     6.1300 nh         1 0VE      -0.372000
     15 C15          4.1120    -0.1220     2.4960 ca         1 0VE      -0.089400
     16 C16          4.2660    -1.0640     4.6960 ca         1 0VE      -0.185500
     17 C17          5.9610     0.4520     3.9130 ca         1 0VE      -0.185500
     18 C18         -4.2170     1.1110     1.7740 ca         1 0VE       0.133100
     19 C19          3.5990    -0.9420     3.4930 ca         1 0VE      -0.051500
     20 C20          5.2980     0.5700     2.7070 ca         1 0VE      -0.051500
     21 O21         -4.8880     2.1800     2.2800 oh         1 0VE      -0.494100
     22 C22         -2.8640    -1.0760     0.7290 ca         1 0VE      -0.118000
     23 O23          7.5600    -2.7380     7.2430 oh         1 0VE      -0.593800
     24 C24         -4.2420    -1.0650     0.7560 ca         1 0VE      -0.072000
     25 C25          5.5800    -1.3540     7.1810 c3         1 0VE       0.158800
     26 C26          7.3640     0.2520     6.3580 c3         1 0VE       0.164800
     27 C27         -4.9200     0.0220     1.2780 ca         1 0VE      -0.158000
     28 C28          6.1480    -2.7650     7.0230 c3         1 0VE       0.195400
     29 C29          7.0400     1.6190     6.9630 c3         1 0VE      -0.027100
     30 H1          -0.4960     0.0040     3.3140 h4         1 0VE      -0.009900
     31 H2           3.9590     0.0620     0.4210 hn         1 0VE       0.299800
     32 H3          -1.4230     0.0000    -1.6580 h4         1 0VE       0.166000
     33 H4           0.7470     0.0020    -3.1450 h4         1 0VE       0.141000
     34 H5          -2.2870     1.9980     2.0520 ha         1 0VE       0.125000
     35 H6           3.8660    -1.7040     5.4730 ha         1 0VE       0.118000
     36 H7           6.8850     0.9910     4.0780 ha         1 0VE       0.118000
     37 H8           2.6770    -1.4850     3.3260 ha         1 0VE       0.114000
     38 H9           5.6980     1.2100     1.9300 ha         1 0VE       0.114000
     39 H10         -5.3870     1.9090     3.0330 ho         1 0VE       0.404000
     40 H11         -2.3370    -1.9290     0.3200 ha         1 0VE       0.112000
     41 H12          7.8480    -3.5850     7.5410 ho         1 0VE       0.390000
     42 H13         -4.7960    -1.9120     0.3690 ha         1 0VE       0.105000
     43 H14          5.8570    -0.9600     8.1520 h1         1 0VE       0.032200
     44 H15          4.5000    -1.3890     7.1010 h1         1 0VE       0.032200
     45 H16          7.9960    -0.3040     7.0400 h1         1 0VE       0.032700
     46 H17          7.8810     0.3870     5.4160 h1         1 0VE       0.032700
     47 H18         -6.0040     0.0240     1.2960 ha         1 0VE       0.113000
     48 H19          5.6830    -3.4250     7.7440 h1         1 0VE      -0.004800
     49 H20          5.9460    -3.1250     6.0210 h1         1 0VE      -0.004800
     50 H21          5.9870     1.8340     6.8270 hc         1 0VE       0.008033
     51 H22          7.6300     2.3820     6.4690 hc         1 0VE       0.008033
     52 H23          7.2730     1.6110     8.0200 hc         1 0VE       0.008033
@<TRIPOS>BOND
     1     1     2 1   
     2     1     4 1   
     3     1    10 1   
     4     2     3 1   
     5     2     7 2   
     6     3     5 2   
     7     3     9 1   
     8     4     6 2   
     9     4     8 1   
    10     5     6 1   
    11     6    30 1   
    12     7    11 1   
    13     8    13 ar  
    14     8    22 ar  
    15     9    15 1   
    16     9    31 1   
    17    10    11 2   
    18    10    32 1   
    19    11    33 1   
    20    12    14 1   
    21    12    16 ar  
    22    12    17 ar  
    23    13    18 ar  
    24    13    34 1   
    25    14    25 1   
    26    14    26 1   
    27    15    19 ar  
    28    15    20 ar  
    29    16    19 ar  
    30    16    35 1   
    31    17    20 ar  
    32    17    36 1   
    33    18    21 1   
    34    18    27 ar  
    35    19    37 1   
    36    20    38 1   
    37    21    39 1   
    38    22    24 ar  
    39    22    40 1   
    40    23    28 1   
    41    23    41 1   
    42    24    27 ar  
    43    24    42 1   
    44    25    28 1   
    45    25    43 1   
    46    25    44 1   
    47    26    29 1   
    48    26    45 1   
    49    26    46 1   
    50    27    47 1   
    51    28    48 1   
    52    28    49 1   
    53    29    50 1   
    54    29    51 1   
    55    29    52 1   
@<TRIPOS>SUBSTRUCTURE
     1 0VE         1 TEMP              0 ****  ****    0 ROOT
