@<TRIPOS>MOLECULE
molecule
   52    55     1     0     0
SMALL
bcc


@<TRIPOS>ATOM
      1 N1           0.0000     0.0000     0.0000 na         1 0VE       0.089700
      2 C2           1.3720     0.0000     0.0000 cc         1 0VE      -0.187600
      3 C3           2.0560     0.0000     1.2420 cd         1 0VE       0.756200
      4 C4          -0.6710     0.0050     1.2040 cd         1 0VE      -0.200600
      5 N5           1.3680    -0.0000     2.3690 nc         1 0VE      -0.778000
      6 C6           0.0350     0.0040     2.3700 cc         1 0VE       0.457200
      7 N7           1.7810    -0.0000    -1.2560 nd         1 0VE      -0.302600
      8 C8          -2.1470     0.0140     1.2310 ca         1 0VE      -0.023000
      9 N9           3.4400    -0.0010     1.2740 nu         1 0VE      -0.736300
     10 C10         -0.4010    -0.0000    -1.2990 cc         1 0VE      -0.223100
     11 C11          0.7190     0.0000    -2.0620 cd         1 0VE       0.016600
     12 C12          5.4480    -0.3690     4.9090 ca         1 0VE       0.197600
     13 C13         -2.8330     1.1120     1.7520 ca         1 0VE      -0.126000
     14 N14          6.1200    -0.4890     6.1300 nh         1 0VE      -0.726000
     15 C15          4.1120    -0.1220     2.4960 ca         1 0VE       0.084600
     16 C16          4.2660    -1.0640     4.6960 ca         1 0VE      -0.198500
     17 C17          5.9610     0.4520     3.9130 ca         1 0VE      -0.198500
     18 C18         -4.2170     1.1110     1.7740 ca         1 0VE       0.111100
     19 C19          3.5990    -0.9420     3.4930 ca         1 0VE      -0.089500
     20 C20          5.2980     0.5700     2.7070 ca         1 0VE      -0.089500
     21 O21         -4.8880     2.1800     2.2800 oh         1 0VE      -0.514100
     22 C22         -2.8640    -1.0760     0.7290 ca         1 0VE      -0.128000
     23 O23          7.5600    -2.7380     7.2430 oh         1 0VE      -0.609800
     24 C24         -4.2420    -1.0650     0.7560 ca         1 0VE      -0.112000
     25 C25          5.5800    -1.3540     7.1810 c3         1 0VE       0.236800
     26 C26          7.3640     0.2520     6.3580 c3         1 0VE       0.235800
     27 C27         -4.9200     0.0220     1.2780 ca         1 0VE      -0.169000
     28 C28          6.1480    -2.7650     7.0230 c3         1 0VE       0.112400
     29 C29          7.0400     1.6190     6.9630 c3         1 0VE      -0.123100
     30 H1          -0.4960     0.0040     3.3140 h4         1 0VE       0.041100
     31 H2           3.9590     0.0620     0.4210 hn         1 0VE       0.472800
     32 H3          -1.4230     0.0000    -1.6580 h4         1 0VE       0.186000
     33 H4           0.7470     0.0020    -3.1450 h4         1 0VE       0.184000
     34 H5          -2.2870     1.9980     2.0520 ha         1 0VE       0.153000
     35 H6           3.8660    -1.7040     5.4730 ha         1 0VE       0.133500
     36 H7           6.8850     0.9910     4.0780 ha         1 0VE       0.133500
     37 H8           2.6770    -1.4850     3.3260 ha         1 0VE       0.141500
     38 H9           5.6980     1.2100     1.9300 ha         1 0VE       0.141500
     39 H10         -5.3870     1.9090     3.0330 ho         1 0VE       0.421000
     40 H11         -2.3370    -1.9290     0.3200 ha         1 0VE       0.140000
     41 H12          7.8480    -3.5850     7.5410 ho         1 0VE       0.400000
     42 H13         -4.7960    -1.9120     0.3690 ha         1 0VE       0.136000
     43 H14          5.8570    -0.9600     8.1520 h1         1 0VE       0.057700
     44 H15          4.5000    -1.3890     7.1010 h1         1 0VE       0.057700
     45 H16          7.9960    -0.3040     7.0400 h1         1 0VE       0.057200
     46 H17          7.8810     0.3870     5.4160 h1         1 0VE       0.057200
     47 H18         -6.0040     0.0240     1.2960 ha         1 0VE       0.139000
     48 H19          5.6830    -3.4250     7.7440 h1         1 0VE       0.030200
     49 H20          5.9460    -3.1250     6.0210 h1         1 0VE       0.030200
     50 H21          5.9870     1.8340     6.8270 hc         1 0VE       0.039700
     51 H22          7.6300     2.3820     6.4690 hc         1 0VE       0.039700
     52 H23          7.2730     1.6110     8.0200 hc         1 0VE       0.039700
@<TRIPOS>BOND
     1    24    22 ar
     2    24    27 ar
     3    22     8 ar
     4    27    18 ar
     5    29    26 1
     6     8     4 1
     7     8    13 ar
     8    18    13 ar
     9    18    21 1
    10     6     4 2
    11     6     5 1
    12    26    14 1
    13     4     1 1
    14     5     3 2
    15    16    19 ar
    16    16    12 ar
    17    19    15 ar
    18    14    12 1
    19    14    25 1
    20     1    10 1
    21     1     2 1
    22    12    17 ar
    23     3     2 1
    24     3     9 1
    25    10    11 2
    26     2     7 2
    27    15     9 1
    28    15    20 ar
    29    28    25 1
    30    28    23 1
    31    17    20 ar
    32    11     7 1
    33     6    30 1
    34     9    31 1
    35    10    32 1
    36    11    33 1
    37    13    34 1
    38    16    35 1
    39    17    36 1
    40    19    37 1
    41    20    38 1
    42    21    39 1
    43    22    40 1
    44    23    41 1
    45    24    42 1
    46    25    43 1
    47    25    44 1
    48    26    45 1
    49    26    46 1
    50    27    47 1
    51    28    48 1
    52    28    49 1
    53    29    50 1
    54    29    51 1
    55    29    52 1
@<TRIPOS>SUBSTRUCTURE
     1 0VE         1 TEMP              0 ****  ****    0 ROOT
