@<TRIPOS>MOLECULE
0VE
   52    55     1     0     0
SMALL
bcc


@<TRIPOS>ATOM
      1 N1           0.0460    -0.1200     0.0650 na         1 0VE       0.066700
      2 C2           1.4670    -0.2490     0.1400 cc         1 0VE      -0.204600
      3 C3           2.1100    -0.1930     1.4630 cc         1 0VE       0.727200
      4 C4          -0.6940     0.0700     1.2300 cc         1 0VE      -0.166600
      5 N5           1.3660    -0.0040     2.5720 nd         1 0VE      -0.739000
      6 C6           0.0140     0.1150     2.4300 cd         1 0VE       0.423200
      7 N7           2.0010    -0.4190    -1.1080 nd         1 0VE      -0.272600
      8 C8          -2.1500     0.2220     1.1940 ca         1 0VE       0.005000
      9 N9           3.4830    -0.4020     1.4930 nu         1 0VE      -0.708300
     10 C10         -0.2930    -0.2210    -1.2740 cc         1 0VE      -0.207100
     11 C11          0.9300    -0.4040    -1.9740 cd         1 0VE      -0.003400
     12 C12          6.0240     0.3390     4.8330 ca         1 0VE       0.151600
     13 C13         -2.7590     1.0740     0.2690 ca         1 0VE      -0.151000
     14 N14          6.8410     0.6690     5.9340 nh         1 0VE      -0.651000
     15 C15          4.2880    -0.1310     2.6230 ca         1 0VE       0.088600
     16 C16          4.8550    -0.4460     4.9650 ca         1 0VE      -0.174000
     17 C17          6.3080     0.8660     3.5490 ca         1 0VE      -0.174000
     18 C18         -4.1560     1.2110     0.2860 ca         1 0VE       0.126100
     19 C19          4.0070    -0.6750     3.8890 ca         1 0VE      -0.104500
     20 C20          5.4590     0.6430     2.4760 ca         1 0VE      -0.104500
     21 O21         -4.6930     2.0610    -0.6540 oh         1 0VE      -0.496100
     22 C22         -2.9320    -0.4800     2.1250 ca         1 0VE      -0.150000
     23 O23         10.3380     0.0240     4.9400 oh         1 0VE      -0.600800
     24 C24         -4.3160    -0.3290     2.1300 ca         1 0VE      -0.089000
     25 C25          8.2570     0.8370     5.6950 c3         1 0VE       0.194800
     26 C26          6.4770     0.1770     7.2460 c3         1 0VE       0.194800
     27 C27         -4.9420     0.5130     1.2130 ca         1 0VE      -0.207000
     28 C28          8.9710    -0.3450     5.0180 c3         1 0VE       0.094400
     29 C29          6.7960    -1.2760     7.5660 c3         1 0VE      -0.132100
     30 H1          -0.5290     0.2710     3.3800 h4         1 0VE       0.039100
     31 H2           3.9480    -0.3120     0.6120 hn         1 0VE       0.454800
     32 H3          -1.3210    -0.1690    -1.6290 h4         1 0VE       0.194000
     33 H4           1.0610    -0.5210    -3.0500 h4         1 0VE       0.184000
     34 H5          -2.1690     1.6500    -0.4590 ha         1 0VE       0.158000
     35 H6           4.5880    -0.9010     5.9310 ha         1 0VE       0.137500
     36 H7           7.2070     1.4790     3.3820 ha         1 0VE       0.137500
     37 H8           3.1100    -1.2960     4.0460 ha         1 0VE       0.143000
     38 H9           5.7170     1.0820     1.4990 ha         1 0VE       0.143000
     39 H10         -5.6530     2.0820    -0.5230 ho         1 0VE       0.421000
     40 H11         -2.4480    -1.1540     2.8470 ha         1 0VE       0.142000
     41 H12         10.7840    -0.6820     4.4580 ho         1 0VE       0.404000
     42 H13         -4.9240    -0.8820     2.8630 ha         1 0VE       0.138000
     43 H14          8.7700     1.0370     6.6780 h1         1 0VE       0.065200
     44 H15          8.4020     1.7520     5.0520 h1         1 0VE       0.065200
     45 H16          5.3720     0.3540     7.3870 h1         1 0VE       0.055200
     46 H17          7.0130     0.8300     7.9970 h1         1 0VE       0.055200
     47 H18         -6.0340     0.6310     1.2160 ha         1 0VE       0.137000
     48 H19          8.5540    -0.5220     3.9900 h1         1 0VE       0.031200
     49 H20          8.8620    -1.2840     5.6240 h1         1 0VE       0.031200
     50 H21          7.8990    -1.4440     7.5930 hc         1 0VE       0.042033
     51 H22          6.3520    -1.9670     6.8090 hc         1 0VE       0.042033
     52 H23          6.3750    -1.5280     8.5690 hc         1 0VE       0.042033
@<TRIPOS>BOND
     1     1     2 1   
     2     1     4 1   
     3     1    10 1   
     4     2     3 1   
     5     2     7 2   
     6     3     5 2   
     7     3     9 1   
     8     4     6 2   
     9     4     8 1   
    10     5     6 1   
    11     6    30 1   
    12     7    11 1   
    13     8    13 ar  
    14     8    22 ar  
    15     9    15 1   
    16     9    31 1   
    17    10    11 2   
    18    10    32 1   
    19    11    33 1   
    20    12    14 1   
    21    12    16 ar  
    22    12    17 ar  
    23    13    18 ar  
    24    13    34 1   
    25    14    25 1   
    26    14    26 1   
    27    15    19 ar  
    28    15    20 ar  
    29    16    19 ar  
    30    16    35 1   
    31    17    20 ar  
    32    17    36 1   
    33    18    21 1   
    34    18    27 ar  
    35    19    37 1   
    36    20    38 1   
    37    21    39 1   
    38    22    24 ar  
    39    22    40 1   
    40    23    28 1   
    41    23    41 1   
    42    24    27 ar  
    43    24    42 1   
    44    25    28 1   
    45    25    43 1   
    46    25    44 1   
    47    26    29 1   
    48    26    45 1   
    49    26    46 1   
    50    27    47 1   
    51    28    48 1   
    52    28    49 1   
    53    29    50 1   
    54    29    51 1   
    55    29    52 1   
@<TRIPOS>SUBSTRUCTURE
     1 0VE         1 TEMP              0 ****  ****    0 ROOT
