@<TRIPOS>MOLECULE
molecule
   60    64     1     0     0
SMALL
bcc


@<TRIPOS>ATOM
      1 C1           0.0000     0.0000     0.0000 ca         1 0VF       0.921900
      2 N2           1.3270     0.0000     0.0000 nb         1 0VF      -0.817000
      3 N3          -0.6950    -0.0010     1.1230 nb         1 0VF      -0.776000
      4 C4           2.0140     0.0000     1.1310 ca         1 0VF       0.794200
      5 C5          -0.0810    -0.0020     2.3080 ca         1 0VF       0.546600
      6 C6           1.3140    -0.0010     2.3670 ca         1 0VF      -0.221200
      7 N7          -0.6740     0.0060    -1.2100 nh         1 0VF      -0.674300
      8 N8           1.7870    -0.0020     3.6260 nc         1 0VF      -0.558100
      9 S9          -0.7020    -0.0030     3.9560 ss         1 0VF      -0.187500
     10 N11          3.3980    -0.0010     1.1100 nu         1 0VF      -0.747300
     11 C12          0.9390    -0.0040     4.5860 cd         1 0VF       0.384100
     12 C14         -9.6560     4.3090    -0.8690 c          1 0VF       0.894200
     13 C15          5.2980     0.5260    -0.2860 ca         1 0VF      -0.225000
     14 C16          5.9730     0.4050    -1.4890 ca         1 0VF       0.117100
     15 C17         -2.1450     0.0120    -1.0020 c3         1 0VF       0.126800
     16 C18         -6.2790     1.7340    -1.6750 ca         1 0VF      -0.133600
     17 C19          4.0800    -0.1180    -0.1070 ca         1 0VF       0.146600
     18 C20         -8.4720     3.3580    -1.1750 ca         1 0VF      -0.079600
     19 C21         -0.4080     1.2610    -1.9620 c3         1 0VF       0.161800
     20 C22         -2.7240     0.5520    -2.3260 c3         1 0VF       0.153700
     21 C23          5.4300    -0.3610    -2.5160 ca         1 0VF       0.115100
     22 O24         -4.6520     0.1740    -1.0520 o          1 0VF      -0.585100
     23 O25        -10.8020     4.0630    -1.3420 o          1 0VF      -0.819300
     24 C26         -1.5810     1.3740    -2.9570 c3         1 0VF      -0.104400
     25 C27         -7.5510     1.1710    -1.5480 ca         1 0VF      -0.115000
     26 C28         -6.1110     3.1130    -1.5430 ca         1 0VF      -0.115000
     27 C29         -7.2000     3.9200    -1.2950 ca         1 0VF      -0.114500
     28 C30         -8.6400     1.9780    -1.3010 ca         1 0VF      -0.114500
     29 C31          4.2150    -1.0000    -2.3350 ca         1 0VF      -0.185000
     30 O32         -9.4800     5.3210    -0.1330 o          1 0VF      -0.819300
     31 C33          3.5380    -0.8750    -1.1360 ca         1 0VF      -0.128000
     32 O35          6.0930    -0.4790    -3.6990 os         1 0VF      -0.320900
     33 C36          7.5320     1.8880    -0.5900 c3         1 0VF       0.119700
     34 C37          5.4760    -1.2810    -4.7100 c3         1 0VF       0.130700
     35 H1           3.9110     0.1200     1.9610 hn         1 0VF       0.470800
     36 H2           1.1730    -0.0640     5.6420 h5         1 0VF       0.068800
     37 H3          -3.7910     2.2000    -1.4540 hn         1 0VF       0.307500
     38 H4           5.7090     1.1390     0.5060 ha         1 0VF       0.140000
     39 H5          -2.5330    -0.9980    -1.0560 h1         1 0VF       0.085200
     40 H6          -2.3850     0.4610    -0.0460 h1         1 0VF       0.085200
     41 H7           0.4990     1.1600    -2.5450 h1         1 0VF       0.051200
     42 H8          -0.3280     2.0960    -1.2760 h1         1 0VF       0.051200
     43 H9          -2.9980    -0.2700    -2.9770 h1         1 0VF       0.066700
     44 H10         -1.8400     2.4140    -3.1130 hc         1 0VF       0.056200
     45 H11         -1.3200     0.9010    -3.8970 hc         1 0VF       0.056200
     46 H12         -7.6790     0.0990    -1.6320 ha         1 0VF       0.118000
     47 H13         -5.1240     3.5500    -1.6410 ha         1 0VF       0.118000
     48 H14         -7.0730     4.9940    -1.2230 ha         1 0VF       0.150000
     49 H15         -9.6260     1.5410    -1.2030 ha         1 0VF       0.150000
     50 H16          3.6200    -1.6780    -2.9350 ha         1 0VF       0.154000
     51 H18          2.5940    -1.3880    -0.9910 ha         1 0VF       0.168000
     52 H19          6.7680     2.6450    -0.4540 h1         1 0VF       0.039033
     53 H20          7.6970     1.3690     0.3460 h1         1 0VF       0.039033
     54 H21          8.4540     2.3590    -0.9090 h1         1 0VF       0.039033
     55 H22          4.4590    -0.9440    -4.8680 h1         1 0VF       0.038367
     56 H23          6.0350    -1.1900    -5.6330 h1         1 0VF       0.038367
     57 H24          5.4680    -2.3170    -4.3930 h1         1 0VF       0.038367
     58 N13         -3.8810     1.4100    -2.0630 ns         1 0VF      -0.674900
     59 C10         -5.1090     0.8670    -1.9410 c          1 0VF       0.672700
     60 O34          7.1660     1.0340    -1.6650 os         1 0VF      -0.299900
@<TRIPOS>BOND
     1    24    20 1   
     2    24    19 1   
     3    22    59 2   
     4    20    58 1   
     5    20    15 1   
     6    26    27 ar  
     7    26    16 ar  
     8    59    58 1   
     9    59    16 1   
    10    27    18 ar  
    11    16    25 ar  
    12    19     7 1   
    13    15     7 1   
    14     7     1 1   
    15    23    12 1   
    16    18    12 1   
    17    18    28 ar  
    18    33    60 1   
    19    25    28 ar  
    20    12    30 1   
    21     1     3 ar  
    22     1     2 ar  
    23     3     5 ar  
    24    60    14 1   
    25     2     4 ar  
    26    14    13 ar  
    27    14    21 ar  
    28    13    17 ar  
    29     5     6 ar  
    30     5     9 1   
    31     4     6 ar  
    32     4    10 1   
    33    32    21 1   
    34    32    34 1   
    35    21    29 ar  
    36     6     8 1   
    37    17    10 1   
    38    17    31 ar  
    39     9    11 1   
    40    29    31 ar  
    41     8    11 2   
    42    10    35 1   
    43    11    36 1   
    44    58    37 1   
    45    13    38 1   
    46    15    39 1   
    47    15    40 1   
    48    19    41 1   
    49    19    42 1   
    50    20    43 1   
    51    24    44 1   
    52    24    45 1   
    53    25    46 1   
    54    26    47 1   
    55    27    48 1   
    56    28    49 1   
    57    29    50 1   
    58    31    51 1   
    59    33    52 1   
    60    33    53 1   
    61    33    54 1   
    62    34    55 1   
    63    34    56 1   
    64    34    57 1   
@<TRIPOS>SUBSTRUCTURE
     1 0VF         1 TEMP              0 ****  ****    0 ROOT
