@<TRIPOS>MOLECULE
0VF
   60    65     1     0     0
SMALL
bcc


@<TRIPOS>ATOM
      1 C1           0.0000     0.0000     0.0000 ca         1 0VF       0.766900
      2 N2           1.3270     0.0000     0.0000 nb         1 0VF      -0.714000
      3 N3          -0.6950    -0.0010     1.1230 nb         1 0VF      -0.652000
      4 C4           2.0140     0.0000     1.1310 ca         1 0VF       0.590200
      5 C5          -0.0810    -0.0020     2.3080 ca         1 0VF       0.552600
      6 C6           1.3140    -0.0010     2.3670 ca         1 0VF      -0.276200
      7 N7          -0.6740     0.0060    -1.2100 nh         1 0VF      -0.468300
      8 N8           1.7870    -0.0020     3.6260 nc         1 0VF      -0.423100
      9 S9          -0.7020    -0.0030     3.9560 ss         1 0VF      -0.301500
     10 N11          3.3980    -0.0010     1.1100 nu         1 0VF      -0.268300
     11 C12          0.9390    -0.0040     4.5860 cd         1 0VF       0.394100
     12 C14         -9.6560     4.3090    -0.8690 c          1 0VF       0.968600
     13 C15          5.2980     0.5260    -0.2860 ca         1 0VF      -0.211000
     14 C16          5.9730     0.4050    -1.4890 ca         1 0VF       0.121100
     15 C17         -2.1450     0.0120    -1.0020 c3         1 0VF       0.086800
     16 C18         -6.2790     1.7340    -1.6750 cc         1 0VF      -0.127000
     17 C19          4.0800    -0.1180    -0.1070 ca         1 0VF      -0.013400
     18 C20         -8.4720     3.3580    -1.1750 cd         1 0VF      -0.057000
     19 C21         -0.4080     1.2610    -1.9620 c3         1 0VF       0.157800
     20 C22         -2.7240     0.5520    -2.3260 c3         1 0VF       0.200500
     21 C23          5.4300    -0.3610    -2.5160 ca         1 0VF       0.126100
     22 O24         -4.6520     0.1740    -1.0520 op         1 0VF      -0.377400
     23 O25        -10.8020     4.0630    -1.3420 o          1 0VF      -0.874800
     24 C26         -1.5810     1.3740    -2.9570 c3         1 0VF      -0.048400
     25 C27         -7.5510     1.1710    -1.5480 cc         1 0VF      -0.098500
     26 C28         -6.1110     3.1130    -1.5430 cc         1 0VF      -0.098500
     27 C29         -7.2000     3.9200    -1.2950 cd         1 0VF      -0.084500
     28 C30         -8.6400     1.9780    -1.3010 cd         1 0VF      -0.084500
     29 C31          4.2150    -1.0000    -2.3350 ca         1 0VF      -0.167000
     30 O32         -9.4800     5.3210    -0.1330 o          1 0VF      -0.874800
     31 C33          3.5380    -0.8750    -1.1360 ca         1 0VF      -0.111000
     32 O35          6.0930    -0.4790    -3.6990 os         1 0VF      -0.298900
     33 C36          7.5320     1.8880    -0.5900 c3         1 0VF       0.233700
     34 C37          5.4760    -1.2810    -4.7100 c3         1 0VF       0.243700
     35 H1           3.9110     0.1200     1.9610 hn         1 0VF       0.297800
     36 H2           1.1730    -0.0640     5.6420 h5         1 0VF       0.029800
     37 H3          -3.7910     2.2000    -1.4540 hn         1 0VF       0.309800
     38 H4           5.7090     1.1390     0.5060 ha         1 0VF       0.126000
     39 H5          -2.5330    -0.9980    -1.0560 h1         1 0VF       0.059200
     40 H6          -2.3850     0.4610    -0.0460 h1         1 0VF       0.059200
     41 H7           0.4990     1.1600    -2.5450 h1         1 0VF       0.018700
     42 H8          -0.3280     2.0960    -1.2760 h1         1 0VF       0.018700
     43 H9          -2.9980    -0.2700    -2.9770 hx         1 0VF       0.035700
     44 H10         -1.8400     2.4140    -3.1130 hc         1 0VF       0.025200
     45 H11         -1.3200     0.9010    -3.8970 hc         1 0VF       0.025200
     46 H12         -7.6790     0.0990    -1.6320 ha         1 0VF       0.093500
     47 H13         -5.1240     3.5500    -1.6410 ha         1 0VF       0.093500
     48 H14         -7.0730     4.9940    -1.2230 ha         1 0VF       0.120000
     49 H15         -9.6260     1.5410    -1.2030 ha         1 0VF       0.120000
     50 H16          3.6200    -1.6780    -2.9350 ha         1 0VF       0.132000
     51 H18          2.5940    -1.3880    -0.9910 ha         1 0VF       0.144000
     52 H19          6.7680     2.6450    -0.4540 h1         1 0VF      -0.003633
     53 H20          7.6970     1.3690     0.3460 h1         1 0VF      -0.003633
     54 H21          8.4540     2.3590    -0.9090 h1         1 0VF      -0.003633
     55 H22          4.4590    -0.9440    -4.8680 h1         1 0VF      -0.004300
     56 H23          6.0350    -1.1900    -5.6330 h1         1 0VF      -0.004300
     57 H24          5.4680    -2.3170    -4.3930 h1         1 0VF      -0.004300
     58 N13         -3.8810     1.4100    -2.0630 nk         1 0VF      -0.637700
     59 C10         -5.1090     0.8670    -1.9410 cu         1 0VF       0.421100
     60 O34          7.1660     1.0340    -1.6650 os         1 0VF      -0.282900
@<TRIPOS>BOND
     1     1     2 ar  
     2     1     3 ar  
     3     1     7 1   
     4     2     4 ar  
     5     3     5 ar  
     6     4     6 ar  
     7     4    10 1   
     8     5     6 ar  
     9     5     9 1   
    10     6     8 1   
    11     7    15 1   
    12     7    19 1   
    13     8    11 2   
    14     9    11 1   
    15    10    17 1   
    16    10    35 1   
    17    11    36 1   
    18    12    18 2   
    19    12    23 1   
    20    12    30 1   
    21    13    14 ar  
    22    13    17 ar  
    23    13    38 1   
    24    14    21 ar  
    25    14    60 1   
    26    15    20 1   
    27    15    39 1   
    28    15    40 1   
    29    16    25 1   
    30    16    26 1   
    31    16    59 2   
    32    17    31 ar  
    33    18    27 1   
    34    18    28 1   
    35    19    24 1   
    36    19    41 1   
    37    19    42 1   
    38    20    24 1   
    39    20    43 1   
    40    20    58 1   
    41    21    29 ar  
    42    21    32 1   
    43    22    58 1   
    44    22    59 1   
    45    24    44 1   
    46    24    45 1   
    47    25    28 2   
    48    25    46 1   
    49    26    27 2   
    50    26    47 1   
    51    27    48 1   
    52    28    49 1   
    53    29    31 ar  
    54    29    50 1   
    55    31    51 1   
    56    32    34 1   
    57    33    52 1   
    58    33    53 1   
    59    33    54 1   
    60    33    60 1   
    61    34    55 1   
    62    34    56 1   
    63    34    57 1   
    64    37    58 1   
    65    58    59 1   
@<TRIPOS>SUBSTRUCTURE
     1 0VF         1 TEMP              0 ****  ****    0 ROOT
