@<TRIPOS>MOLECULE
0VG
   50    54     1     0     0
SMALL
bcc


@<TRIPOS>ATOM
      1 C1           0.0000     0.0000     0.0000 cc         1 0VG      -0.323300
      2 N2           1.3700     0.0000     0.0000 na         1 0VG       0.711200
      3 C3          -0.6930    -0.0070     1.2350 cc         1 0VG       0.144600
      4 N4           2.0720     0.0000     1.2090 nc         1 0VG      -0.647800
      5 C5           0.0250    -0.0060     2.3990 cd         1 0VG      -0.319300
      6 C6           1.4300    -0.0000     2.3590 cd         1 0VG       0.541800
      7 N7          -4.1170     0.9510     0.5900 nb         1 0VG      -0.670000
      8 C8          -4.8320     1.9130     0.0260 ca         1 0VG       0.529200
      9 N9          -6.2160     1.7980    -0.0310 nh         1 0VG      -0.470300
     10 N10         -0.4110     0.0010    -1.2600 nd         1 0VG      -0.208600
     11 N11         -2.0840    -0.0120     1.2630 nu         1 0VG      -0.325300
     12 C12         -2.7970     1.0220     0.6630 ca         1 0VG       0.525200
     13 C13          1.7700     0.0010    -1.3020 cc         1 0VG      -0.360100
     14 C14          0.6520     0.0020    -2.0660 cd         1 0VG       0.022600
     15 C15          2.2000    -0.0020     3.6270 ca         1 0VG      -0.174500
     16 C16         -6.6680     0.5400     0.5910 c3         1 0VG       0.081500
     17 C17         -6.6950     1.8320    -1.4290 c3         1 0VG       0.149800
     18 C18         -4.2120     3.0360    -0.5090 ca         1 0VG      -0.288300
     19 C19         -2.1150     2.1170     0.1470 ca         1 0VG      -0.296300
     20 C20         -2.8330     3.1410    -0.4490 ca         1 0VG      -0.003000
     21 C21         -7.9280     0.8950    -1.4470 c3         1 0VG      -0.032400
     22 C22         -7.4840    -0.2270    -0.4710 c3         1 0VG      -0.038400
     23 C23          3.5940    -0.0020     3.6000 ca         1 0VG      -0.067000
     24 C24          1.5330     0.0040     4.8510 ca         1 0VG      -0.067000
     25 C25         -7.5460     0.8450     1.8060 c3         1 0VG       0.014900
     26 C26          4.3050    -0.0020     4.7830 ca         1 0VG      -0.108500
     27 C27          2.2540     0.0040     6.0270 ca         1 0VG      -0.108500
     28 C28          3.6360    -0.0020     5.9940 ca         1 0VG      -0.079000
     29 H1          -0.4900    -0.0060     3.3520 ha         1 0VG       0.142000
     30 H2          -2.5730    -0.7660     1.7040 hn         1 0VG       0.297800
     31 H3           2.7930     0.0020    -1.6600 h4         1 0VG       0.163000
     32 H4           0.6250     0.0030    -3.1490 h4         1 0VG       0.144000
     33 H5          -5.8100    -0.0500     0.8890 h1         1 0VG       0.073700
     34 H6          -5.9290     1.4580    -2.0980 h1         1 0VG       0.019700
     35 H7          -6.9840     2.8400    -1.7030 h1         1 0VG       0.019700
     36 H8          -4.8020     3.8200    -0.9690 ha         1 0VG       0.123000
     37 H9          -1.0350     2.1690     0.2100 ha         1 0VG       0.127000
     38 H10         -2.3250     4.0060    -0.8590 ha         1 0VG       0.104000
     39 H11         -8.0950     0.4980    -2.4410 hc         1 0VG       0.022700
     40 H12         -8.8060     1.4070    -1.0730 hc         1 0VG       0.022700
     41 H13         -6.8610    -0.9510    -0.9810 hc         1 0VG       0.022700
     42 H14         -8.3470    -0.7020    -0.0200 hc         1 0VG       0.022700
     43 H15          4.1180    -0.0020     2.6520 ha         1 0VG       0.117500
     44 H16          0.4500     0.0090     4.8780 ha         1 0VG       0.117500
     45 H17         -6.9900     1.4530     2.5100 hc         1 0VG       0.003700
     46 H18         -7.8370    -0.0830     2.2830 hc         1 0VG       0.003700
     47 H19         -8.4320     1.3800     1.4870 hc         1 0VG       0.003700
     48 H20          5.3880    -0.0050     4.7630 ha         1 0VG       0.106500
     49 H21          1.7360     0.0060     6.9790 ha         1 0VG       0.106500
     50 H22          4.1980    -0.0020     6.9200 ha         1 0VG       0.103000
@<TRIPOS>BOND
     1     1     2 1   
     2     1     3 1   
     3     1    10 2   
     4     2     4 1   
     5     2    13 1   
     6     3     5 2   
     7     3    11 1   
     8     4     6 2   
     9     5     6 1   
    10     5    29 1   
    11     6    15 1   
    12     7     8 ar  
    13     7    12 ar  
    14     8     9 1   
    15     8    18 ar  
    16     9    16 1   
    17     9    17 1   
    18    10    14 1   
    19    11    12 1   
    20    11    30 1   
    21    12    19 ar  
    22    13    14 2   
    23    13    31 1   
    24    14    32 1   
    25    15    23 ar  
    26    15    24 ar  
    27    16    22 1   
    28    16    25 1   
    29    16    33 1   
    30    17    21 1   
    31    17    34 1   
    32    17    35 1   
    33    18    20 ar  
    34    18    36 1   
    35    19    20 ar  
    36    19    37 1   
    37    20    38 1   
    38    21    22 1   
    39    21    39 1   
    40    21    40 1   
    41    22    41 1   
    42    22    42 1   
    43    23    26 ar  
    44    23    43 1   
    45    24    27 ar  
    46    24    44 1   
    47    25    45 1   
    48    25    46 1   
    49    25    47 1   
    50    26    28 ar  
    51    26    48 1   
    52    27    28 ar  
    53    27    49 1   
    54    28    50 1   
@<TRIPOS>SUBSTRUCTURE
     1 0VG         1 TEMP              0 ****  ****    0 ROOT
