@<TRIPOS>MOLECULE
0VG
   50    54     1     0     0
SMALL
bcc


@<TRIPOS>ATOM
      1 C1          -0.0770    -0.2420     0.0770 cc         1 0VG      -0.119300
      2 N2           1.3250    -0.5770     0.1040 na         1 0VG       0.193200
      3 C3          -0.6750     0.3020     1.2940 cc         1 0VG       0.247600
      4 N4           2.1160    -0.4420     1.1600 nc         1 0VG      -0.492800
      5 C5           0.1700     0.4490     2.3800 cd         1 0VG      -0.277300
      6 C6           1.5570     0.0610     2.2710 cd         1 0VG       0.459800
      7 N7          -2.6000     0.2150     3.5040 nb         1 0VG      -0.773000
      8 C8          -3.5730     0.1370     4.4650 ca         1 0VG       0.686200
      9 N9          -3.2110    -0.1110     5.8020 nh         1 0VG      -0.749300
     10 N10         -0.6130    -0.5080    -1.1480 nd         1 0VG      -0.282600
     11 N11         -2.0050     0.7050     1.2210 nu         1 0VG      -0.721300
     12 C12         -2.9700     0.5680     2.2420 ca         1 0VG       0.684200
     13 C13          1.6290    -1.0760    -1.1710 cc         1 0VG      -0.174100
     14 C14          0.4240    -1.0160    -1.9080 cd         1 0VG      -0.006400
     15 C15          2.4110     0.2350     3.4600 ca         1 0VG      -0.148500
     16 C16         -1.8300    -0.4580     6.1630 c3         1 0VG       0.210500
     17 C17         -4.1580    -0.8470     6.6320 c3         1 0VG       0.194800
     18 C18         -4.9500     0.3830     4.1660 ca         1 0VG      -0.327300
     19 C19         -4.3270     0.8350     1.8820 ca         1 0VG      -0.334300
     20 C20         -5.2990     0.7340     2.8690 ca         1 0VG      -0.034000
     21 C21         -3.3660    -1.6770     7.6530 c3         1 0VG      -0.091400
     22 C22         -1.8980    -1.3490     7.4250 c3         1 0VG      -0.093400
     23 C23          3.7000     0.7720     3.3440 ca         1 0VG      -0.100000
     24 C24          1.9260    -0.1430     4.7190 ca         1 0VG      -0.100000
     25 C25         -0.9720     0.7750     6.4240 c3         1 0VG      -0.095100
     26 C26          4.4900     0.9340     4.4820 ca         1 0VG      -0.137500
     27 C27          2.7240     0.0190     5.8500 ca         1 0VG      -0.137500
     28 C28          4.0050     0.5570     5.7340 ca         1 0VG      -0.116000
     29 H1          -0.1710     0.8650     3.3390 ha         1 0VG       0.181000
     30 H2          -2.4020     0.6970     0.3010 hn         1 0VG       0.457800
     31 H3           2.6270    -1.4150    -1.4410 h4         1 0VG       0.195000
     32 H4           0.2720    -1.3170    -2.9450 h4         1 0VG       0.184000
     33 H5          -1.3410    -1.0520     5.3340 h1         1 0VG       0.058700
     34 H6          -4.8210    -1.5160     6.0150 h1         1 0VG       0.048200
     35 H7          -4.8120    -0.0960     7.1540 h1         1 0VG       0.048200
     36 H8          -5.7170     0.3180     4.9480 ha         1 0VG       0.146000
     37 H9          -4.5990     1.1150     0.8570 ha         1 0VG       0.146000
     38 H10         -6.3530     0.9340     2.6200 ha         1 0VG       0.138000
     39 H11         -3.6810    -1.4150     8.6930 hc         1 0VG       0.052200
     40 H12         -3.5620    -2.7660     7.5010 hc         1 0VG       0.052200
     41 H13         -1.2970    -2.2770     7.2670 hc         1 0VG       0.052200
     42 H14         -1.4720    -0.8090     8.3060 hc         1 0VG       0.052200
     43 H15          4.0910     1.0670     2.3590 ha         1 0VG       0.145500
     44 H16          0.9130    -0.5660     4.8130 ha         1 0VG       0.145500
     45 H17          0.0520     0.4430     6.7230 hc         1 0VG       0.044033
     46 H18         -1.4010     1.4040     7.2400 hc         1 0VG       0.044033
     47 H19         -0.8890     1.3990     5.5000 hc         1 0VG       0.044033
     48 H20          5.5010     1.3580     4.3880 ha         1 0VG       0.134500
     49 H21          2.3390    -0.2800     6.8360 ha         1 0VG       0.134500
     50 H22          4.6320     0.6840     6.6290 ha         1 0VG       0.133000
@<TRIPOS>BOND
     1     1     2 1   
     2     1     3 1   
     3     1    10 2   
     4     2     4 1   
     5     2    13 1   
     6     3     5 2   
     7     3    11 1   
     8     4     6 2   
     9     5     6 1   
    10     5    29 1   
    11     6    15 1   
    12     7     8 ar  
    13     7    12 ar  
    14     8     9 1   
    15     8    18 ar  
    16     9    16 1   
    17     9    17 1   
    18    10    14 1   
    19    11    12 1   
    20    11    30 1   
    21    12    19 ar  
    22    13    14 2   
    23    13    31 1   
    24    14    32 1   
    25    15    23 ar  
    26    15    24 ar  
    27    16    22 1   
    28    16    25 1   
    29    16    33 1   
    30    17    21 1   
    31    17    34 1   
    32    17    35 1   
    33    18    20 ar  
    34    18    36 1   
    35    19    20 ar  
    36    19    37 1   
    37    20    38 1   
    38    21    22 1   
    39    21    39 1   
    40    21    40 1   
    41    22    41 1   
    42    22    42 1   
    43    23    26 ar  
    44    23    43 1   
    45    24    27 ar  
    46    24    44 1   
    47    25    45 1   
    48    25    46 1   
    49    25    47 1   
    50    26    28 ar  
    51    26    48 1   
    52    27    28 ar  
    53    27    49 1   
    54    28    50 1   
@<TRIPOS>SUBSTRUCTURE
     1 0VG         1 TEMP              0 ****  ****    0 ROOT
