@<TRIPOS>MOLECULE
molecule
   50    54     1     0     0
SMALL
bcc


@<TRIPOS>ATOM
      1 C1           0.0000     0.0000     0.0000 cc         1 0VG      -0.117300
      2 N2           1.3700     0.0000     0.0000 na         1 0VG       0.200200
      3 C3          -0.6930    -0.0070     1.2350 cd         1 0VG       0.272600
      4 N4           2.0720     0.0000     1.2090 nd         1 0VG      -0.501800
      5 C5           0.0250    -0.0060     2.3990 cc         1 0VG      -0.306300
      6 C6           1.4300    -0.0000     2.3590 cc         1 0VG       0.491800
      7 N7          -4.1170     0.9510     0.5900 nb         1 0VG      -0.799000
      8 C8          -4.8320     1.9130     0.0260 ca         1 0VG       0.652200
      9 N9          -6.2160     1.7980    -0.0310 nh         1 0VG      -0.689300
     10 N10         -0.4110     0.0010    -1.2600 nd         1 0VG      -0.274600
     11 N11         -2.0840    -0.0120     1.2630 nu         1 0VG      -0.781300
     12 C12         -2.7970     1.0220     0.6630 ca         1 0VG       0.722200
     13 C13          1.7700     0.0010    -1.3020 cc         1 0VG      -0.177100
     14 C14          0.6520     0.0020    -2.0660 cd         1 0VG       0.004600
     15 C15          2.2000    -0.0020     3.6270 ca         1 0VG      -0.154500
     16 C16         -6.6680     0.5400     0.5910 c3         1 0VG       0.147500
     17 C17         -6.6950     1.8320    -1.4290 c3         1 0VG       0.163800
     18 C18         -4.2120     3.0360    -0.5090 ca         1 0VG      -0.307300
     19 C19         -2.1150     2.1170     0.1470 ca         1 0VG      -0.309300
     20 C20         -2.8330     3.1410    -0.4490 ca         1 0VG      -0.041000
     21 C21         -7.9280     0.8950    -1.4470 c3         1 0VG      -0.093400
     22 C22         -7.4840    -0.2270    -0.4710 c3         1 0VG      -0.099400
     23 C23          3.5940    -0.0020     3.6000 ca         1 0VG      -0.093500
     24 C24          1.5330     0.0040     4.8510 ca         1 0VG      -0.093500
     25 C25         -7.5460     0.8450     1.8060 c3         1 0VG      -0.076100
     26 C26          4.3050    -0.0020     4.7830 ca         1 0VG      -0.134000
     27 C27          2.2540     0.0040     6.0270 ca         1 0VG      -0.134000
     28 C28          3.6360    -0.0020     5.9940 ca         1 0VG      -0.108000
     29 H1          -0.4900    -0.0060     3.3520 ha         1 0VG       0.159000
     30 H2          -2.5730    -0.7660     1.7040 hn         1 0VG       0.465800
     31 H3           2.7930     0.0020    -1.6600 h4         1 0VG       0.187000
     32 H4           0.6250     0.0030    -3.1490 h4         1 0VG       0.188000
     33 H5          -5.8100    -0.0500     0.8890 h1         1 0VG       0.095700
     34 H6          -5.9290     1.4580    -2.0980 h1         1 0VG       0.050700
     35 H7          -6.9840     2.8400    -1.7030 h1         1 0VG       0.050700
     36 H8          -4.8020     3.8200    -0.9690 ha         1 0VG       0.143000
     37 H9          -1.0350     2.1690     0.2100 ha         1 0VG       0.143000
     38 H10         -2.3250     4.0060    -0.8590 ha         1 0VG       0.138000
     39 H11         -8.0950     0.4980    -2.4410 hc         1 0VG       0.053700
     40 H12         -8.8060     1.4070    -1.0730 hc         1 0VG       0.053700
     41 H13         -6.8610    -0.9510    -0.9810 hc         1 0VG       0.051700
     42 H14         -8.3470    -0.7020    -0.0200 hc         1 0VG       0.051700
     43 H15          4.1180    -0.0020     2.6520 ha         1 0VG       0.144000
     44 H16          0.4500     0.0090     4.8780 ha         1 0VG       0.144000
     45 H17         -6.9900     1.4530     2.5100 hc         1 0VG       0.036367
     46 H18         -7.8370    -0.0830     2.2830 hc         1 0VG       0.036367
     47 H19         -8.4320     1.3800     1.4870 hc         1 0VG       0.036367
     48 H20          5.3880    -0.0050     4.7630 ha         1 0VG       0.136500
     49 H21          1.7360     0.0060     6.9790 ha         1 0VG       0.136500
     50 H22          4.1980    -0.0020     6.9200 ha         1 0VG       0.133000
@<TRIPOS>BOND
     1    28    26 ar  
     2    28    27 ar  
     3    26    23 ar  
     4    27    24 ar  
     5    23    15 ar  
     6    25    16 1   
     7    21    22 1   
     8    21    17 1   
     9    22    16 1   
    10    24    15 ar  
    11    15     6 1   
    12    16     9 1   
    13    17     9 1   
    14     9     8 1   
    15     6     4 2   
    16     6     5 1   
    17     4     2 1   
    18     5     3 2   
    19     8     7 ar  
    20     8    18 ar  
    21     7    12 ar  
    22    18    20 ar  
    23     2     1 1   
    24     2    13 1   
    25     3     1 1   
    26     3    11 1   
    27    12    11 1   
    28    12    19 ar  
    29     1    10 2   
    30    13    14 2   
    31    20    19 ar  
    32    10    14 1   
    33     5    29 1   
    34    11    30 1   
    35    13    31 1   
    36    14    32 1   
    37    16    33 1   
    38    17    34 1   
    39    17    35 1   
    40    18    36 1   
    41    19    37 1   
    42    20    38 1   
    43    21    39 1   
    44    21    40 1   
    45    22    41 1   
    46    22    42 1   
    47    23    43 1   
    48    24    44 1   
    49    25    45 1   
    50    25    46 1   
    51    25    47 1   
    52    26    48 1   
    53    27    49 1   
    54    28    50 1   
@<TRIPOS>SUBSTRUCTURE
     1 0VG         1 TEMP              0 ****  ****    0 ROOT
