@<TRIPOS>MOLECULE
0VH
   53    55     1     0     0
SMALL
bcc


@<TRIPOS>ATOM
      1 C1           0.0730     0.0150    -0.0380 ca         1 0VH      -0.243300
      2 C2           1.4630    -0.0860    -0.0140 ca         1 0VH      -0.050000
      3 C3           2.1390    -0.0030     1.2020 ca         1 0VH      -0.220300
      4 C4           1.3930     0.1910     2.3850 ca         1 0VH       0.441600
      5 N5           0.0440     0.2990     2.3900 nb         1 0VH      -0.730000
      6 C6          -0.6090     0.2040     1.1980 ca         1 0VH       0.604200
      7 N7          -2.0330     0.2740     1.1340 nu         1 0VH      -0.686300
      8 C8           2.1260     0.2850     3.6960 c3         1 0VH      -0.135700
      9 C9          -2.9340     0.4720     2.1250 ca         1 0VH       0.282300
     10 C10         -2.5770     0.7800     3.4830 ca         1 0VH      -0.338300
     11 C11         -3.5720     0.9590     4.4470 ca         1 0VH       0.622200
     12 N12         -4.9550     0.8520     4.0750 nb         1 0VH      -0.317000
     13 N13         -5.2710     0.6020     2.9110 nb         1 0VH      -0.241000
     14 C14         -4.3620     0.3940     1.8740 ca         1 0VH       0.059800
     15 C15         -4.9050     0.0940     0.5640 c          1 0VH       0.495600
     16 O16         -4.3230    -0.0940    -0.5020 o          1 0VH      -0.479100
     17 N17         -6.4120    -0.0170     0.4440 nz         1 0VH      -0.738400
     18 N18         -3.3020     1.3250     5.7710 nu         1 0VH      -0.853900
     19 C19         -2.0400     0.9470     6.3840 c3         1 0VH       0.177500
     20 C20         -1.0620     2.1650     6.4430 c3         1 0VH       0.116500
     21 C21          0.2630     1.7320     7.0720 c3         1 0VH      -0.115400
     22 C22          0.0830     1.0920     8.4300 c3         1 0VH      -0.098400
     23 C23         -0.8850    -0.0690     8.3700 c3         1 0VH      -0.091400
     24 C24         -2.2210     0.3340     7.7830 c3         1 0VH      -0.107400
     25 N25         -1.6620     3.3300     7.1780 nz         1 0VH      -0.835600
     26 C26          1.7470    -0.8240     4.6460 c3         1 0VH      -0.095100
     27 H1          -0.4670    -0.0530    -0.9950 ha         1 0VH       0.165000
     28 H2           2.0190    -0.2330    -0.9550 ha         1 0VH       0.176000
     29 H3           3.2360    -0.0890     1.2430 ha         1 0VH       0.175000
     30 H4          -2.3810     0.1040     0.2050 hn         1 0VH       0.483800
     31 H5           3.2310     0.2440     3.4940 hc         1 0VH       0.061700
     32 H6           1.9130     1.2830     4.1680 hc         1 0VH       0.061700
     33 H7          -1.5120     0.8740     3.7530 ha         1 0VH       0.203000
     34 H8          -6.8530     0.8690     0.7140 hn         1 0VH       0.476467
     35 H9          -6.7610    -0.7560     1.0630 hn         1 0VH       0.476467
     36 H10         -4.0900     1.2500     6.3890 hn         1 0VH       0.447800
     37 H11         -1.4980     0.1790     5.7460 h1         1 0VH       0.112700
     38 H12         -0.8680     2.5310     5.3880 hx         1 0VH       0.111700
     39 H13          0.9660     2.6040     7.1440 hc         1 0VH       0.091200
     40 H14          0.7350     0.9910     6.3640 hc         1 0VH       0.091200
     41 H15         -0.2700     1.8490     9.1800 hc         1 0VH       0.070200
     42 H16          1.0810     0.7230     8.7940 hc         1 0VH       0.070200
     43 H17         -0.4400    -0.8980     7.7560 hc         1 0VH       0.082200
     44 H18         -1.0480    -0.4750     9.4040 hc         1 0VH       0.082200
     45 H19         -2.7450     1.0490     8.4700 hc         1 0VH       0.068700
     46 H20         -2.8720    -0.5790     7.7030 hc         1 0VH       0.068700
     47 H21         -0.9760     4.0900     7.2380 hn         1 0VH       0.463800
     48 H22         -1.9190     3.0430     8.1290 hn         1 0VH       0.463800
     49 H24          2.3560    -0.7460     5.5800 hc         1 0VH       0.044033
     50 H25          0.6650    -0.7700     4.9190 hc         1 0VH       0.044033
     51 H26          1.9410    -1.8230     4.1850 hc         1 0VH       0.044033
     52 H173        -6.6620    -0.2390    -0.5290 hn         1 0VH       0.476467
     53 H253        -2.4980     3.6660     6.6900 hn         1 0VH       0.463800
@<TRIPOS>BOND
     1     1     2 ar  
     2     1     6 ar  
     3     1    27 1   
     4     2     3 ar  
     5     2    28 1   
     6     3     4 ar  
     7     3    29 1   
     8     4     5 ar  
     9     4     8 1   
    10     5     6 ar  
    11     6     7 1   
    12     7     9 1   
    13     7    30 1   
    14     8    26 1   
    15     8    31 1   
    16     8    32 1   
    17     9    10 ar  
    18     9    14 ar  
    19    10    11 ar  
    20    10    33 1   
    21    11    12 ar  
    22    11    18 1   
    23    12    13 ar  
    24    13    14 ar  
    25    14    15 1   
    26    15    16 2   
    27    15    17 1   
    28    17    34 1   
    29    17    35 1   
    30    17    52 1   
    31    18    19 1   
    32    18    36 1   
    33    19    20 1   
    34    19    24 1   
    35    19    37 1   
    36    20    21 1   
    37    20    25 1   
    38    20    38 1   
    39    21    22 1   
    40    21    39 1   
    41    21    40 1   
    42    22    23 1   
    43    22    41 1   
    44    22    42 1   
    45    23    24 1   
    46    23    43 1   
    47    23    44 1   
    48    24    45 1   
    49    24    46 1   
    50    25    47 1   
    51    25    48 1   
    52    25    53 1   
    53    26    49 1   
    54    26    50 1   
    55    26    51 1   
@<TRIPOS>SUBSTRUCTURE
     1 0VH         1 TEMP              0 ****  ****    0 ROOT
