@<TRIPOS>MOLECULE
0VH
   53    55     1     0     0
SMALL
bcc


@<TRIPOS>ATOM
      1 C1           0.0000     0.0000     0.0000 ca         1 0VH      -0.345300
      2 C2           1.3830     0.0000     0.0000 ca         1 0VH      -0.015000
      3 C3           2.0470     0.0000     1.2200 ca         1 0VH      -0.232300
      4 C4           1.3110     0.0010     2.3890 ca         1 0VH       0.442600
      5 N5          -0.0080     0.0010     2.3590 nb         1 0VH      -0.591000
      6 C6          -0.6760     0.0070     1.2160 ca         1 0VH       0.491200
      7 N7          -2.0680     0.0070     1.2300 nu         1 0VH      -0.378300
      8 C8           2.0250    -0.0070     3.7160 c3         1 0VH      -0.078700
      9 C9          -2.7740     0.0980     0.0400 ca         1 0VH       0.115300
     10 C10         -3.3720     1.2930    -0.3530 ca         1 0VH      -0.297300
     11 C11         -4.0640     1.3110    -1.5590 ca         1 0VH       0.523200
     12 N12         -4.1400     0.2070    -2.2990 nb         1 0VH      -0.329000
     13 N13         -3.5940    -0.8980    -1.9440 nb         1 0VH      -0.206000
     14 C14         -2.9060    -1.0160    -0.8150 ca         1 0VH       0.122800
     15 C15         -2.2890    -2.3050    -0.4540 c          1 0VH       0.260600
     16 O16         -1.7580    -2.4420     0.6320 o          1 0VH      -0.400100
     17 N17         -2.3110    -3.3320    -1.3260 nz         1 0VH       0.216600
     18 N18         -4.6750     2.4770    -1.9900 nu         1 0VH      -0.518900
     19 C19         -4.5920     3.6920    -1.1760 c3         1 0VH       0.122500
     20 C20         -4.7600     4.9200    -2.0720 c3         1 0VH      -0.086500
     21 C21         -6.1230     4.8640    -2.7650 c3         1 0VH      -0.035400
     22 C22         -7.2320     4.8470    -1.7100 c3         1 0VH      -0.012400
     23 C23         -7.0630     3.6190    -0.8130 c3         1 0VH      -0.033400
     24 C24         -5.7000     3.6760    -0.1210 c3         1 0VH      -0.037400
     25 N25         -3.6970     4.9360    -3.0860 nz         1 0VH       0.071400
     26 C26          1.5380     1.1700     4.5640 c3         1 0VH       0.013900
     27 H1          -0.5490     0.0030    -0.9340 ha         1 0VH       0.095000
     28 H2           1.9370    -0.0030    -0.9310 ha         1 0VH       0.114000
     29 H3           3.1300     0.0000     1.2540 ha         1 0VH       0.138000
     30 H4          -2.5590    -0.0440     2.1000 hn         1 0VH       0.328800
     31 H5           3.0920     0.0830     3.5520 hc         1 0VH       0.034700
     32 H6           1.8150    -0.9350     4.2330 hc         1 0VH       0.034700
     33 H7          -3.3000     2.1820     0.2620 ha         1 0VH       0.155000
     34 H8          -3.2590    -3.6110    -1.4890 hn         1 0VH       0.251133
     35 H9          -1.7970    -4.1030    -0.9480 hn         1 0VH       0.251133
     36 H10         -5.1530     2.4960    -2.8700 hn         1 0VH       0.320800
     37 H11         -3.6280     3.7370    -0.6840 h1         1 0VH       0.053700
     38 H12         -4.7020     5.8170    -1.4680 hx         1 0VH       0.112700
     39 H13         -6.2420     5.7350    -3.3970 hc         1 0VH       0.040200
     40 H14         -6.1850     3.9640    -3.3650 hc         1 0VH       0.040200
     41 H15         -8.1960     4.8030    -2.2020 hc         1 0VH       0.049200
     42 H16         -7.1680     5.7440    -1.1070 hc         1 0VH       0.049200
     43 H17         -7.1230     2.7220    -1.4170 hc         1 0VH       0.041700
     44 H18         -7.8460     3.6100    -0.0650 hc         1 0VH       0.041700
     45 H19         -5.6380     4.5760     0.4790 hc         1 0VH       0.047700
     46 H20         -5.5810     2.8050     0.5120 hc         1 0VH       0.047700
     47 H21         -2.8120     4.7830    -2.6440 hn         1 0VH       0.229467
     48 H22         -3.8640     4.2120    -3.7570 hn         1 0VH       0.229467
     49 H24          2.1970     1.3010     5.4130 hc         1 0VH       0.009367
     50 H25          1.5380     2.0720     3.9640 hc         1 0VH       0.009367
     51 H26          0.5320     0.9710     4.9150 hc         1 0VH       0.009367
     52 H173        -1.8740    -3.0520    -2.1820 hn         1 0VH       0.251133
     53 H253        -3.6890     5.8240    -3.5480 hn         1 0VH       0.229467
@<TRIPOS>BOND
     1     1     2 ar  
     2     1     6 ar  
     3     1    27 1   
     4     2     3 ar  
     5     2    28 1   
     6     3     4 ar  
     7     3    29 1   
     8     4     5 ar  
     9     4     8 1   
    10     5     6 ar  
    11     6     7 1   
    12     7     9 1   
    13     7    30 1   
    14     8    26 1   
    15     8    31 1   
    16     8    32 1   
    17     9    10 ar  
    18     9    14 ar  
    19    10    11 ar  
    20    10    33 1   
    21    11    12 ar  
    22    11    18 1   
    23    12    13 ar  
    24    13    14 ar  
    25    14    15 1   
    26    15    16 2   
    27    15    17 1   
    28    17    34 1   
    29    17    35 1   
    30    17    52 1   
    31    18    19 1   
    32    18    36 1   
    33    19    20 1   
    34    19    24 1   
    35    19    37 1   
    36    20    21 1   
    37    20    25 1   
    38    20    38 1   
    39    21    22 1   
    40    21    39 1   
    41    21    40 1   
    42    22    23 1   
    43    22    41 1   
    44    22    42 1   
    45    23    24 1   
    46    23    43 1   
    47    23    44 1   
    48    24    45 1   
    49    24    46 1   
    50    25    47 1   
    51    25    48 1   
    52    25    53 1   
    53    26    49 1   
    54    26    50 1   
    55    26    51 1   
@<TRIPOS>SUBSTRUCTURE
     1 0VH         1 TEMP              0 ****  ****    0 ROOT
