@<TRIPOS>MOLECULE
molecule
   53    55     1     0     0
SMALL
bcc


@<TRIPOS>ATOM
      1 C1           0.0000     0.0000     0.0000 ca         1 0VH      -0.358300
      2 C2           1.3830     0.0000     0.0000 ca         1 0VH      -0.048000
      3 C3           2.0470     0.0000     1.2200 ca         1 0VH      -0.270300
      4 C4           1.3110     0.0010     2.3890 ca         1 0VH       0.498600
      5 N5          -0.0080     0.0010     2.3590 nb         1 0VH      -0.725000
      6 C6          -0.6760     0.0070     1.2160 ca         1 0VH       0.686200
      7 N7          -2.0680     0.0070     1.2300 nu         1 0VH      -0.812300
      8 C8           2.0250    -0.0070     3.7160 c3         1 0VH      -0.136700
      9 C9          -2.7740     0.0980     0.0400 ca         1 0VH       0.233300
     10 C10         -3.3720     1.2930    -0.3530 ca         1 0VH      -0.303300
     11 C11         -4.0640     1.3110    -1.5590 ca         1 0VH       0.673200
     12 N12         -4.1400     0.2070    -2.2990 nb         1 0VH      -0.360000
     13 N13         -3.5940    -0.8980    -1.9440 nb         1 0VH      -0.252000
     14 C14         -2.9060    -1.0160    -0.8150 ca         1 0VH       0.170800
     15 C15         -2.2890    -2.3050    -0.4540 c          1 0VH       0.420600
     16 O16         -1.7580    -2.4420     0.6320 o          1 0VH      -0.373100
     17 N17         -2.3110    -3.3320    -1.3260 nz         1 0VH      -0.671400
     18 N18         -4.6750     2.4770    -1.9900 nu         1 0VH      -0.918900
     19 C19         -4.5920     3.6920    -1.1760 c3         1 0VH       0.217500
     20 C20         -4.7600     4.9200    -2.0720 c3         1 0VH       0.092500
     21 C21         -6.1230     4.8640    -2.7650 c3         1 0VH      -0.105400
     22 C22         -7.2320     4.8470    -1.7100 c3         1 0VH      -0.074400
     23 C23         -7.0630     3.6190    -0.8130 c3         1 0VH      -0.089400
     24 C24         -5.7000     3.6760    -0.1210 c3         1 0VH      -0.095400
     25 N25         -3.6970     4.9360    -3.0860 nz         1 0VH      -0.811600
     26 C26          1.5380     1.1700     4.5640 c3         1 0VH      -0.085100
     27 H1          -0.5490     0.0030    -0.9340 ha         1 0VH       0.107000
     28 H2           1.9370    -0.0030    -0.9310 ha         1 0VH       0.148000
     29 H3           3.1300     0.0000     1.2540 ha         1 0VH       0.165000
     30 H4          -2.5590    -0.0440     2.1000 hn         1 0VH       0.491800
     31 H5           3.0920     0.0830     3.5520 hc         1 0VH       0.070700
     32 H6           1.8150    -0.9350     4.2330 hc         1 0VH       0.070700
     33 H7          -3.3000     2.1820     0.2620 ha         1 0VH       0.179000
     34 H8          -3.2590    -3.6110    -1.4890 hn         1 0VH       0.486133
     35 H9          -1.7970    -4.1030    -0.9480 hn         1 0VH       0.486133
     36 H10         -5.1530     2.4960    -2.8700 hn         1 0VH       0.465800
     37 H11         -3.6280     3.7370    -0.6840 h1         1 0VH       0.075700
     38 H12         -4.7020     5.8170    -1.4680 hx         1 0VH       0.136700
     39 H13         -6.2420     5.7350    -3.3970 hc         1 0VH       0.069700
     40 H14         -6.1850     3.9640    -3.3650 hc         1 0VH       0.069700
     41 H15         -8.1960     4.8030    -2.2020 hc         1 0VH       0.082700
     42 H16         -7.1680     5.7440    -1.1070 hc         1 0VH       0.082700
     43 H17         -7.1230     2.7220    -1.4170 hc         1 0VH       0.075200
     44 H18         -7.8460     3.6100    -0.0650 hc         1 0VH       0.075200
     45 H19         -5.6380     4.5760     0.4790 hc         1 0VH       0.079700
     46 H20         -5.5810     2.8050     0.5120 hc         1 0VH       0.079700
     47 H21         -2.8120     4.7830    -2.6440 hn         1 0VH       0.459467
     48 H22         -3.8640     4.2120    -3.7570 hn         1 0VH       0.459467
     49 H24          2.1970     1.3010     5.4130 hc         1 0VH       0.045367
     50 H25          1.5380     2.0720     3.9640 hc         1 0VH       0.045367
     51 H26          0.5320     0.9710     4.9150 hc         1 0VH       0.045367
     52 H173        -1.8740    -3.0520    -2.1820 hn         1 0VH       0.486133
     53 H253        -3.6890     5.8240    -3.5480 hn         1 0VH       0.459467
@<TRIPOS>BOND
     1    23    24 1   
     2    23    22 1   
     3    24    19 1   
     4    26     8 1   
     5    22    21 1   
     6    19    18 1   
     7    19    20 1   
     8    18    11 1   
     9     8     4 1   
    10    21    20 1   
    11    20    25 1   
    12    11    10 ar  
    13    11    12 ar  
    14     4     5 ar  
    15     4     3 ar  
    16    10     9 ar  
    17     5     6 ar  
    18    12    13 ar  
    19     3     2 ar  
    20     9     7 1   
    21     9    14 ar  
    22     6     7 1   
    23     6     1 ar  
    24    13    14 ar  
    25    14    15 1   
    26     2     1 ar  
    27    15    17 1   
    28    15    16 2   
    29     1    27 1   
    30     2    28 1   
    31     3    29 1   
    32     7    30 1   
    33     8    31 1   
    34     8    32 1   
    35    10    33 1   
    36    17    34 1   
    37    17    35 1   
    38    18    36 1   
    39    19    37 1   
    40    20    38 1   
    41    21    39 1   
    42    21    40 1   
    43    22    41 1   
    44    22    42 1   
    45    23    43 1   
    46    23    44 1   
    47    24    45 1   
    48    24    46 1   
    49    25    47 1   
    50    25    48 1   
    51    26    49 1   
    52    26    50 1   
    53    26    51 1   
    54    52    17 1   
    55    53    25 1   
@<TRIPOS>SUBSTRUCTURE
     1 0VH         1 TEMP              0 ****  ****    0 ROOT
