@<TRIPOS>MOLECULE
0VJ
   36    38     1     0     0
SMALL
bcc


@<TRIPOS>ATOM
      1 C01          0.0000     0.0000     0.0000 ca         1 0VJ      -0.085000
      2 C02          1.3810     0.0000     0.0000 ca         1 0VJ      -0.091000
      3 C03          2.0830     0.0000     1.1960 ca         1 0VJ      -0.045000
      4 C04          1.3920     0.0000     2.4020 ca         1 0VJ      -0.147600
      5 C05         -0.0130    -0.0000     2.4020 ca         1 0VJ      -0.138600
      6 C06         -0.7030     0.0000     1.1960 ca         1 0VJ      -0.049000
      7 C07          2.1170    -0.0010     3.6900 c          1 0VJ       0.609900
      8 C08          1.3530    -0.0030     4.9600 cc         1 0VJ       0.054900
      9 C09          0.0040    -0.0010     4.9530 cd         1 0VJ      -0.196400
     10 C10         -0.7420    -0.0000     3.6910 c          1 0VJ       0.642900
     11 C11         -0.7470    -0.0030     6.2590 c3         1 0VJ       0.103100
     12 C12         -1.1050     1.4130     6.6340 ca         1 0VJ      -0.138300
     13 C13         -2.3030     1.9580     6.2110 ca         1 0VJ      -0.051000
     14 C14         -2.6320     3.2550     6.5530 ca         1 0VJ      -0.179000
     15 C15         -1.7600     4.0120     7.3220 ca         1 0VJ       0.149100
     16 C16         -0.5580     3.4620     7.7440 ca         1 0VJ      -0.179000
     17 C17         -0.2360     2.1630     7.4050 ca         1 0VJ      -0.051000
     18 O01         -2.0820     5.2880     7.6600 os         1 0VJ      -0.308900
     19 O02         -1.9580    -0.0010     3.7020 o          1 0VJ      -0.544100
     20 O03          3.3320    -0.0020     3.7080 o          1 0VJ      -0.541100
     21 O            2.0150    -0.0030     6.1400 oh         1 0VJ      -0.465100
     22 C           -1.1360     6.0060     8.4530 c3         1 0VJ       0.243700
     23 H1          -0.5380    -0.0000    -0.9400 ha         1 0VJ       0.108000
     24 H2           1.9200    -0.0000    -0.9400 ha         1 0VJ       0.109000
     25 H3           3.1670     0.0000     1.1900 ha         1 0VJ       0.125000
     26 H4          -1.7860     0.0000     1.1890 ha         1 0VJ       0.127000
     27 H5          -0.1240    -0.4350     7.0330 hc         1 0VJ       0.032200
     28 H6          -1.6520    -0.5890     6.1550 hc         1 0VJ       0.032200
     29 H7          -2.9840     1.3670     5.6100 ha         1 0VJ       0.117000
     30 H8          -3.5710     3.6810     6.2210 ha         1 0VJ       0.118000
     31 H9           0.1240     4.0500     8.3470 ha         1 0VJ       0.118000
     32 H10          0.7030     1.7340     7.7350 ha         1 0VJ       0.117000
     33 H11          2.6420    -0.7070     6.1480 ho         1 0VJ       0.414000
     34 H12         -1.5120     7.0030     8.6490 h1         1 0VJ      -0.003300
     35 H13         -0.9820     5.4870     9.3910 h1         1 0VJ      -0.003300
     36 H14         -0.1950     6.0740     7.9190 h1         1 0VJ      -0.003300
@<TRIPOS>BOND
     1     1     2 ar  
     2     1     6 ar  
     3     1    23 1   
     4     2     3 ar  
     5     2    24 1   
     6     3     4 ar  
     7     3    25 1   
     8     4     5 ar  
     9     4     7 1   
    10     5     6 ar  
    11     5    10 1   
    12     6    26 1   
    13     7     8 1   
    14     7    20 2   
    15     8     9 2   
    16     8    21 1   
    17     9    10 1   
    18     9    11 1   
    19    10    19 2   
    20    11    12 1   
    21    11    27 1   
    22    11    28 1   
    23    12    13 ar  
    24    12    17 ar  
    25    13    14 ar  
    26    13    29 1   
    27    14    15 ar  
    28    14    30 1   
    29    15    16 ar  
    30    15    18 1   
    31    16    17 ar  
    32    16    31 1   
    33    17    32 1   
    34    18    22 1   
    35    21    33 1   
    36    22    34 1   
    37    22    35 1   
    38    22    36 1   
@<TRIPOS>SUBSTRUCTURE
     1 0VJ         1 TEMP              0 ****  ****    0 ROOT
