@<TRIPOS>MOLECULE
molecule
   36    38     1     0     0
SMALL
bcc


@<TRIPOS>ATOM
      1 C01          0.0000     0.0000     0.0000 ca         1 0VJ      -0.112000
      2 C02          1.3810     0.0000     0.0000 ca         1 0VJ      -0.118000
      3 C03          2.0830     0.0000     1.1960 ca         1 0VJ      -0.076000
      4 C04          1.3920     0.0000     2.4020 ca         1 0VJ      -0.137600
      5 C05         -0.0130    -0.0000     2.4020 ca         1 0VJ      -0.132600
      6 C06         -0.7030     0.0000     1.1960 ca         1 0VJ      -0.080000
      7 C07          2.1170    -0.0010     3.6900 c          1 0VJ       0.552900
      8 C08          1.3530    -0.0030     4.9600 cc         1 0VJ       0.040900
      9 C09          0.0040    -0.0010     4.9530 cd         1 0VJ      -0.167400
     10 C10         -0.7420    -0.0000     3.6910 c          1 0VJ       0.585900
     11 C11         -0.7470    -0.0030     6.2590 c3         1 0VJ       0.025100
     12 C12         -1.1050     1.4130     6.6340 ca         1 0VJ      -0.127300
     13 C13         -2.3030     1.9580     6.2110 ca         1 0VJ      -0.079000
     14 C14         -2.6320     3.2550     6.5530 ca         1 0VJ      -0.193000
     15 C15         -1.7600     4.0120     7.3220 ca         1 0VJ       0.141100
     16 C16         -0.5580     3.4620     7.7440 ca         1 0VJ      -0.193000
     17 C17         -0.2360     2.1630     7.4050 ca         1 0VJ      -0.079000
     18 O01         -2.0820     5.2880     7.6600 os         1 0VJ      -0.329900
     19 O02         -1.9580    -0.0010     3.7020 o          1 0VJ      -0.509100
     20 O03          3.3320    -0.0020     3.7080 o          1 0VJ      -0.507100
     21 O            2.0150    -0.0030     6.1400 oh         1 0VJ      -0.486100
     22 C           -1.1360     6.0060     8.4530 c3         1 0VJ       0.128700
     23 H1          -0.5380    -0.0000    -0.9400 ha         1 0VJ       0.140000
     24 H2           1.9200    -0.0000    -0.9400 ha         1 0VJ       0.140000
     25 H3           3.1670     0.0000     1.1900 ha         1 0VJ       0.157000
     26 H4          -1.7860     0.0000     1.1890 ha         1 0VJ       0.158000
     27 H5          -1.6520    -0.5890     6.1550 hc         1 0VJ       0.067200
     28 H6          -0.1240    -0.4350     7.0330 hc         1 0VJ       0.067200
     29 H7          -2.9840     1.3670     5.6100 ha         1 0VJ       0.144500
     30 H8          -3.5710     3.6810     6.2210 ha         1 0VJ       0.138500
     31 H9           0.1240     4.0500     8.3470 ha         1 0VJ       0.138500
     32 H10          0.7030     1.7340     7.7350 ha         1 0VJ       0.144500
     33 H11          2.6430    -0.7070     6.1480 ho         1 0VJ       0.434000
     34 H12         -0.9820     5.4870     9.3910 h1         1 0VJ       0.040700
     35 H13         -1.5120     7.0030     8.6490 h1         1 0VJ       0.040700
     36 H14         -0.1950     6.0750     7.9190 h1         1 0VJ       0.040700
@<TRIPOS>BOND
     1     1     6 ar
     2     1     2 ar
     3     6     5 ar
     4     2     3 ar
     5    19    10 2
     6     5    10 1
     7     5     4 ar
     8     3     4 ar
     9    10     9 1
    10     4     7 1
    11    17    16 ar
    12    17    12 ar
    13     9    11 1
    14     9     8 2
    15    16    15 ar
    16     7     8 1
    17     7    20 2
    18    11    12 1
    19    12    13 ar
    20     8    21 1
    21    15    18 1
    22    15    14 ar
    23    13    14 ar
    24    18    22 1
    25     1    23 1
    26     2    24 1
    27     3    25 1
    28     6    26 1
    29    11    27 1
    30    11    28 1
    31    13    29 1
    32    14    30 1
    33    16    31 1
    34    17    32 1
    35    21    33 1
    36    22    34 1
    37    22    35 1
    38    22    36 1
@<TRIPOS>SUBSTRUCTURE
     1 0VJ         1 TEMP              0 ****  ****    0 ROOT
