@<TRIPOS>MOLECULE
0VJ
   36    38     1     0     0
SMALL
bcc


@<TRIPOS>ATOM
      1 C01          0.6630    -0.7150     0.2590 ca         1 0VJ      -0.107000
      2 C02          2.0190    -0.4800     0.4680 ca         1 0VJ      -0.121000
      3 C03          2.4810    -0.1440     1.7420 ca         1 0VJ      -0.077000
      4 C04          1.5840    -0.0440     2.8100 ca         1 0VJ      -0.137600
      5 C05          0.2130    -0.2790     2.6000 ca         1 0VJ      -0.122600
      6 C06         -0.2390    -0.6140     1.3210 ca         1 0VJ      -0.087000
      7 C07          2.0860     0.3040     4.1470 c          1 0VJ       0.558900
      8 C08          1.0840     0.3320     5.2460 cc         1 0VJ       0.047900
      9 C09         -0.2400     0.1040     5.0580 cd         1 0VJ      -0.178400
     10 C10         -0.7680    -0.1750     3.7080 c          1 0VJ       0.583900
     11 C11         -1.2180     0.1380     6.1840 c3         1 0VJ       0.018100
     12 C12         -1.4200    -1.2060     6.7980 ca         1 0VJ      -0.117300
     13 C13         -0.6250    -1.6190     7.8700 ca         1 0VJ      -0.088000
     14 C14         -0.8240    -2.8630     8.4680 ca         1 0VJ      -0.182500
     15 C15         -1.8330    -3.7010     7.9790 ca         1 0VJ       0.123100
     16 C16         -2.6360    -3.3010     6.8940 ca         1 0VJ      -0.182500
     17 C17         -2.4220    -2.0590     6.3130 ca         1 0VJ      -0.088000
     18 O01         -2.1270    -4.9520     8.4880 os         1 0VJ      -0.328900
     19 O02         -1.9810    -0.3120     3.4990 o          1 0VJ      -0.519100
     20 O03          3.2730     0.5610     4.3920 o          1 0VJ      -0.525100
     21 O            1.5450     0.6080     6.5090 oh         1 0VJ      -0.484100
     22 C           -1.3370    -5.3810     9.5900 c3         1 0VJ       0.113700
     23 H1           0.2960    -0.9810    -0.7450 ha         1 0VJ       0.144000
     24 H2           2.7310    -0.5580    -0.3680 ha         1 0VJ       0.144000
     25 H3           3.5530     0.0450     1.9200 ha         1 0VJ       0.159000
     26 H4          -1.3150    -0.7950     1.1620 ha         1 0VJ       0.164000
     27 H5          -2.2010     0.5240     5.7960 hc         1 0VJ       0.071200
     28 H6          -0.8490     0.8560     6.9680 hc         1 0VJ       0.071200
     29 H7           0.1730    -0.9550     8.2400 ha         1 0VJ       0.144500
     30 H8          -0.1910    -3.1680     9.3110 ha         1 0VJ       0.142000
     31 H9          -3.4200    -3.9760     6.5240 ha         1 0VJ       0.142000
     32 H10         -3.0370    -1.7360     5.4570 ha         1 0VJ       0.144500
     33 H11          2.5010     0.7830     6.4500 ho         1 0VJ       0.444000
     34 H12         -0.2610    -5.4540     9.3000 h1         1 0VJ       0.043033
     35 H13         -1.4620    -4.6910    10.4590 h1         1 0VJ       0.043033
     36 H14         -1.7510    -6.3940     9.8290 h1         1 0VJ       0.043033
@<TRIPOS>BOND
     1     1     2 ar  
     2     1     6 ar  
     3     1    23 1   
     4     2     3 ar  
     5     2    24 1   
     6     3     4 ar  
     7     3    25 1   
     8     4     5 ar  
     9     4     7 1   
    10     5     6 ar  
    11     5    10 1   
    12     6    26 1   
    13     7     8 1   
    14     7    20 2   
    15     8     9 2   
    16     8    21 1   
    17     9    10 1   
    18     9    11 1   
    19    10    19 2   
    20    11    12 1   
    21    11    27 1   
    22    11    28 1   
    23    12    13 ar  
    24    12    17 ar  
    25    13    14 ar  
    26    13    29 1   
    27    14    15 ar  
    28    14    30 1   
    29    15    16 ar  
    30    15    18 1   
    31    16    17 ar  
    32    16    31 1   
    33    17    32 1   
    34    18    22 1   
    35    21    33 1   
    36    22    34 1   
    37    22    35 1   
    38    22    36 1   
@<TRIPOS>SUBSTRUCTURE
     1 0VJ         1 TEMP              0 ****  ****    0 ROOT
