@<TRIPOS>MOLECULE
0VK
   72    74     1     0     0
SMALL
bcc


@<TRIPOS>ATOM
      1 C1           0.7940    -0.3580    -0.4850 ca         1 0VK      -0.129000
      2 C2           2.0380    -0.0170     0.0550 ca         1 0VK      -0.095300
      3 C3           2.2240    -0.0710     1.4450 ca         1 0VK      -0.082300
      4 C4           1.1740    -0.4790     2.2710 ca         1 0VK      -0.109000
      5 C5          -0.0640    -0.8330     1.7230 ca         1 0VK      -0.095300
      6 C6          -0.2510    -0.7660     0.3400 ca         1 0VK      -0.092000
      7 C48          3.5230     0.3360     2.0680 c3         1 0VK       0.175700
      8 O49          4.5030    -0.6470     1.7610 oh         1 0VK      -0.596800
      9 C52          3.1550     0.4210    -0.8380 c3         1 0VK       0.163700
     10 O53          2.9600     0.0730    -2.1950 oh         1 0VK      -0.596800
     11 C10         -1.1480    -1.3060     2.6340 c3         1 0VK       0.175700
     12 O1          -2.4050    -0.9600     2.0360 os         1 0VK      -0.327900
     13 C14         -3.5260    -1.2930     2.7750 ca         1 0VK       0.118100
     14 C17         -4.7420    -0.8710     2.2080 ca         1 0VK      -0.142000
     15 C18         -5.9440    -1.1560     2.8570 cp         1 0VK      -0.006000
     16 C19         -5.9380    -1.8650     4.0750 ca         1 0VK      -0.093300
     17 C20         -4.7180    -2.2740     4.6190 ca         1 0VK      -0.100000
     18 C21         -3.5090    -1.9960     3.9830 ca         1 0VK      -0.199000
     19 C8          -7.2050    -2.1910     4.7700 c3         1 0VK      -0.050800
     20 C7          -7.2030    -0.6850     2.2630 cp         1 0VK      -0.039000
     21 C9          -7.8080     0.4640     2.7900 ca         1 0VK      -0.121000
     22 C11         -7.8060    -1.3420     1.1780 ca         1 0VK      -0.062300
     23 C12         -8.9970    -0.8330     0.6440 ca         1 0VK      -0.104000
     24 C13         -8.9910     0.9600     2.2530 ca         1 0VK      -0.132000
     25 C16         -9.5980     0.3130     1.1710 ca         1 0VK      -0.069300
     26 C15         -7.2160    -2.5670     0.5690 c3         1 0VK      -0.042100
     27 C22         -7.9860    -3.8150     0.9620 c3         1 0VK      -0.076400
     28 C24        -10.8720     0.8390     0.5500 c3         1 0VK       0.203100
     29 C25        -10.5380     1.7820    -0.6200 c3         1 0VK      -0.103400
     30 C26        -11.7640     1.5140     1.6010 c3         1 0VK      -0.103400
     31 O2         -11.5470    -0.3100     0.0180 oh         1 0VK      -0.600800
     32 C28        -13.1720     1.7720     1.1300 c3         1 0VK      -0.096100
     33 C29         -9.8390     3.0510    -0.2150 c3         1 0VK      -0.096100
     34 C23         -7.4010    -5.0440     0.3150 c3         1 0VK      -0.093100
     35 H1           0.6440    -0.2950    -1.5750 ha         1 0VK       0.148000
     36 H2           1.3220    -0.5250     3.3610 ha         1 0VK       0.132000
     37 H3          -1.2310    -1.0290    -0.0890 ha         1 0VK       0.151000
     38 H4           3.8490     1.3320     1.6550 h1         1 0VK       0.029200
     39 H5           3.4150     0.4260     3.1840 h1         1 0VK       0.029200
     40 H6           5.3090    -0.3770     2.2170 ho         1 0VK       0.401000
     41 H7           4.1300    -0.0070    -0.4700 h1         1 0VK       0.064200
     42 H8           3.2210     1.5450    -0.8450 h1         1 0VK       0.064200
     43 H9           2.9060    -0.8900    -2.2370 ho         1 0VK       0.403000
     44 H10         -1.0690    -0.8170     3.6430 h1         1 0VK       0.048200
     45 H11         -1.0900    -2.4230     2.7510 h1         1 0VK       0.048200
     46 H12         -4.7320    -0.3180     1.2570 ha         1 0VK       0.154000
     47 H13         -4.7080    -2.8290     5.5700 ha         1 0VK       0.133000
     48 H14         -2.5680    -2.3310     4.4380 ha         1 0VK       0.136000
     49 H15         -7.0170    -2.5320     5.8170 hc         1 0VK       0.046033
     50 H16         -7.8750    -1.2960     4.8010 hc         1 0VK       0.046033
     51 H17         -7.7420    -3.0080     4.2230 hc         1 0VK       0.046033
     52 H18         -7.3360     0.9800     3.6410 ha         1 0VK       0.136000
     53 H19         -9.4760    -1.3540    -0.2020 ha         1 0VK       0.152000
     54 H20         -9.4400     1.8650     2.6880 ha         1 0VK       0.132000
     55 H21         -6.1420    -2.6770     0.8810 hc         1 0VK       0.052700
     56 H22         -7.2270    -2.4640    -0.5500 hc         1 0VK       0.052700
     57 H23         -9.0600    -3.7000     0.6580 hc         1 0VK       0.044200
     58 H24         -7.9660    -3.9290     2.0780 hc         1 0VK       0.044200
     59 H25        -11.4900     2.0350    -1.1570 hc         1 0VK       0.050450
     60 H26         -9.8930     1.2080    -1.3380 hc         1 0VK       0.050450
     61 H27        -11.2920     2.4860     1.9020 hc         1 0VK       0.050450
     62 H28        -11.7960     0.8540     2.5080 hc         1 0VK       0.050450
     63 H29        -12.3160     0.0170    -0.4640 ho         1 0VK       0.401000
     64 H30        -13.7180     0.8120     0.9610 hc         1 0VK       0.037533
     65 H31        -13.1780     2.3580     0.1790 hc         1 0VK       0.037533
     66 H32        -13.7290     2.3540     1.9040 hc         1 0VK       0.037533
     67 H33        -10.5390     3.7460     0.3100 hc         1 0VK       0.037533
     68 H34         -9.4450     3.5740    -1.1200 hc         1 0VK       0.037533
     69 H35         -8.9810     2.8320     0.4680 hc         1 0VK       0.037533
     70 H36         -7.9780    -5.9510     0.6170 hc         1 0VK       0.032700
     71 H37         -6.3360    -5.1840     0.6240 hc         1 0VK       0.032700
     72 H38         -7.4340    -4.9590    -0.7980 hc         1 0VK       0.032700
@<TRIPOS>BOND
     1     1     2 ar  
     2     1     6 ar  
     3     1    35 1   
     4     2     3 ar  
     5     2     9 1   
     6     3     4 ar  
     7     3     7 1   
     8     4     5 ar  
     9     4    36 1   
    10     5     6 ar  
    11     5    11 1   
    12     6    37 1   
    13     7     8 1   
    14     7    38 1   
    15     7    39 1   
    16     8    40 1   
    17     9    10 1   
    18     9    41 1   
    19     9    42 1   
    20    10    43 1   
    21    11    12 1   
    22    11    44 1   
    23    11    45 1   
    24    12    13 1   
    25    13    14 ar  
    26    13    18 ar  
    27    14    15 ar  
    28    14    46 1   
    29    15    16 ar  
    30    15    20 1   
    31    16    17 ar  
    32    16    19 1   
    33    17    18 ar  
    34    17    47 1   
    35    18    48 1   
    36    19    49 1   
    37    19    50 1   
    38    19    51 1   
    39    20    21 ar  
    40    20    22 ar  
    41    21    24 ar  
    42    21    52 1   
    43    22    23 ar  
    44    22    26 1   
    45    23    25 ar  
    46    23    53 1   
    47    24    25 ar  
    48    24    54 1   
    49    25    28 1   
    50    26    27 1   
    51    26    55 1   
    52    26    56 1   
    53    27    34 1   
    54    27    57 1   
    55    27    58 1   
    56    28    29 1   
    57    28    30 1   
    58    28    31 1   
    59    29    33 1   
    60    29    59 1   
    61    29    60 1   
    62    30    32 1   
    63    30    61 1   
    64    30    62 1   
    65    31    63 1   
    66    32    64 1   
    67    32    65 1   
    68    32    66 1   
    69    33    67 1   
    70    33    68 1   
    71    33    69 1   
    72    34    70 1   
    73    34    71 1   
    74    34    72 1   
@<TRIPOS>SUBSTRUCTURE
     1 0VK         1 TEMP              0 ****  ****    0 ROOT
