@<TRIPOS>MOLECULE
0VK
   72    74     1     0     0
SMALL
bcc


@<TRIPOS>ATOM
      1 C1           0.0000     0.0000     0.0000 ca         1 0VK      -0.083000
      2 C2           1.3820     0.0000     0.0000 ca         1 0VK      -0.095300
      3 C3           2.0730     0.0000     1.1980 ca         1 0VK      -0.109300
      4 C4           1.3810     0.0010     2.3940 ca         1 0VK      -0.053000
      5 C5          -0.0020     0.0010     2.3940 ca         1 0VK      -0.117300
      6 C6          -0.6920     0.0070     1.1970 ca         1 0VK      -0.078000
      7 C48          3.5800    -0.0010     1.1980 c3         1 0VK       0.283700
      8 O49          4.0560     0.0000     2.5460 oh         1 0VK      -0.590800
      9 C52          2.1370    -0.0020    -1.3040 c3         1 0VK       0.281700
     10 O53          1.2080    -0.0030    -2.3900 oh         1 0VK      -0.590800
     11 C10         -0.7550     0.0030     3.6990 c3         1 0VK       0.263700
     12 O1          -0.9930     1.3500     4.1110 os         1 0VK      -0.299900
     13 C14         -1.6680     1.5290     5.2770 ca         1 0VK       0.148100
     14 C17         -1.9380     2.8090     5.7320 ca         1 0VK      -0.132000
     15 C18         -2.6280     2.9880     6.9280 cp         1 0VK       0.010000
     16 C19         -3.0440     1.8770     7.6600 ca         1 0VK      -0.121300
     17 C20         -2.7720     0.6050     7.1990 ca         1 0VK      -0.057000
     18 C21         -2.0910     0.4280     6.0100 ca         1 0VK      -0.211000
     19 C8          -3.7920     2.0670     8.9550 c3         1 0VK       0.044200
     20 C7          -2.9190     4.3570     7.4210 cp         1 0VK      -0.030000
     21 C9          -3.7730     5.1910     6.7040 ca         1 0VK      -0.088000
     22 C11         -2.3440     4.8100     8.6070 ca         1 0VK      -0.071300
     23 C12         -2.6200     6.0840     9.0620 ca         1 0VK      -0.086000
     24 C13         -4.0460     6.4620     7.1700 ca         1 0VK      -0.110000
     25 C16         -3.4650     6.9100     8.3430 ca         1 0VK      -0.124300
     26 C15         -1.4250     3.9100     9.3930 c3         1 0VK      -0.007100
     27 C22         -0.0050     4.0200     8.8340 c3         1 0VK      -0.027400
     28 C24         -3.7650     8.2980     8.8480 c3         1 0VK       0.228100
     29 C25         -4.0560     9.2200     7.6610 c3         1 0VK      -0.047400
     30 C26         -4.9860     8.2510     9.7690 c3         1 0VK      -0.047400
     31 O2          -2.6390     8.7960     9.5710 oh         1 0VK      -0.584800
     32 C28         -4.7250     7.2660    10.9100 c3         1 0VK      -0.006100
     33 C29         -4.3260    10.6370     8.1710 c3         1 0VK      -0.006100
     34 C23          0.9290     3.1070     9.6310 c3         1 0VK       0.005900
     35 H1          -0.5410     0.0020    -0.9380 ha         1 0VK       0.126000
     36 H2           1.9220    -0.0010     3.3330 ha         1 0VK       0.129000
     37 H3          -1.7760     0.0070     1.1960 ha         1 0VK       0.106000
     38 H4           3.9410    -0.8860     0.6890 h1         1 0VK      -0.008300
     39 H5           3.9420     0.8830     0.6870 h1         1 0VK      -0.008300
     40 H6           4.9970    -0.0620     2.5470 ho         1 0VK       0.391000
     41 H7           2.7600     0.8820    -1.3620 h1         1 0VK      -0.007800
     42 H8           2.7590    -0.8870    -1.3600 h1         1 0VK      -0.007800
     43 H9           1.6780    -0.0320    -3.2070 ho         1 0VK       0.391000
     44 H10         -0.1690    -0.5080     4.4540 h1         1 0VK       0.004700
     45 H11         -1.7010    -0.5080     3.5690 h1         1 0VK       0.004700
     46 H12         -1.6120     3.6690     5.1600 ha         1 0VK       0.123000
     47 H13         -3.0980    -0.2570     7.7680 ha         1 0VK       0.104000
     48 H14         -1.8790    -0.5720     5.6520 ha         1 0VK       0.120000
     49 H15         -4.7200     1.5080     8.9210 hc         1 0VK       0.015367
     50 H16         -3.1850     1.7100     9.7780 hc         1 0VK       0.015367
     51 H17         -4.0090     3.1190     9.0960 hc         1 0VK       0.015367
     52 H18         -4.2290     4.8410     5.7850 ha         1 0VK       0.110000
     53 H19         -2.1710     6.4390     9.9820 ha         1 0VK       0.128000
     54 H20         -4.7080     7.1130     6.6120 ha         1 0VK       0.114000
     55 H21         -1.7670     2.8850     9.3110 hc         1 0VK       0.034200
     56 H22         -1.4290     4.2100    10.4330 hc         1 0VK       0.034200
     57 H23          0.3360     5.0450     8.9150 hc         1 0VK       0.017700
     58 H24         -0.0020     3.7200     7.7930 hc         1 0VK       0.017700
     59 H25         -4.9250     8.8570     7.1270 hc         1 0VK       0.023950
     60 H26         -3.2020     9.2320     6.9950 hc         1 0VK       0.023950
     61 H27         -5.8520     7.9290     9.2040 hc         1 0VK       0.023950
     62 H28         -5.1680     9.2380    10.1770 hc         1 0VK       0.023950
     63 H29         -1.9540     9.0290     8.9670 ho         1 0VK       0.396000
     64 H30         -3.7040     7.3730    11.2540 hc         1 0VK       0.008533
     65 H31         -4.8830     6.2540    10.5570 hc         1 0VK       0.008533
     66 H32         -5.4050     7.4730    11.7280 hc         1 0VK       0.008533
     67 H33         -3.7500    10.8130     9.0710 hc         1 0VK       0.008533
     68 H34         -4.0370    11.3540     7.4120 hc         1 0VK       0.008533
     69 H35         -5.3810    10.7470     8.3900 hc         1 0VK       0.008533
     70 H36          1.9140     3.1160     9.1800 hc         1 0VK       0.000367
     71 H37          0.9960     3.4630    10.6520 hc         1 0VK       0.000367
     72 H38          0.5380     2.0970     9.6260 hc         1 0VK       0.000367
@<TRIPOS>BOND
     1     1     2 ar  
     2     1     6 ar  
     3     1    35 1   
     4     2     3 ar  
     5     2     9 1   
     6     3     4 ar  
     7     3     7 1   
     8     4     5 ar  
     9     4    36 1   
    10     5     6 ar  
    11     5    11 1   
    12     6    37 1   
    13     7     8 1   
    14     7    38 1   
    15     7    39 1   
    16     8    40 1   
    17     9    10 1   
    18     9    41 1   
    19     9    42 1   
    20    10    43 1   
    21    11    12 1   
    22    11    44 1   
    23    11    45 1   
    24    12    13 1   
    25    13    14 ar  
    26    13    18 ar  
    27    14    15 ar  
    28    14    46 1   
    29    15    16 ar  
    30    15    20 1   
    31    16    17 ar  
    32    16    19 1   
    33    17    18 ar  
    34    17    47 1   
    35    18    48 1   
    36    19    49 1   
    37    19    50 1   
    38    19    51 1   
    39    20    21 ar  
    40    20    22 ar  
    41    21    24 ar  
    42    21    52 1   
    43    22    23 ar  
    44    22    26 1   
    45    23    25 ar  
    46    23    53 1   
    47    24    25 ar  
    48    24    54 1   
    49    25    28 1   
    50    26    27 1   
    51    26    55 1   
    52    26    56 1   
    53    27    34 1   
    54    27    57 1   
    55    27    58 1   
    56    28    29 1   
    57    28    30 1   
    58    28    31 1   
    59    29    33 1   
    60    29    59 1   
    61    29    60 1   
    62    30    32 1   
    63    30    61 1   
    64    30    62 1   
    65    31    63 1   
    66    32    64 1   
    67    32    65 1   
    68    32    66 1   
    69    33    67 1   
    70    33    68 1   
    71    33    69 1   
    72    34    70 1   
    73    34    71 1   
    74    34    72 1   
@<TRIPOS>SUBSTRUCTURE
     1 0VK         1 TEMP              0 ****  ****    0 ROOT
