@<TRIPOS>MOLECULE
molecule
   41    44     1     0     0
SMALL
bcc


@<TRIPOS>ATOM
      1 C8           0.0000     0.0000     0.0000 ca         1 0VM      -0.052000
      2 C9           1.3950     0.0000     0.0000 ca         1 0VM      -0.081000
      3 C10          2.0780     0.0000     1.2010 ca         1 0VM      -0.113200
      4 C11          1.3670    -0.0010     2.4160 ca         1 0VM       0.138400
      5 C13         -0.0330    -0.0010     2.4000 ca         1 0VM      -0.063000
      6 C14         -0.7030     0.0000     1.2130 ca         1 0VM      -0.105000
      7 N3           3.4220    -0.0000     1.5410 na         1 0VM      -0.277300
      8 C12          3.4920     0.0000     2.9050 cc         1 0VM       0.653700
      9 N4           2.2840    -0.0000     3.4130 nd         1 0VM      -0.639100
     10 C15          4.5180     0.3680     7.7880 ca         1 0VM       0.150100
     11 C16          5.5950    -0.2660     7.1830 ca         1 0VM      -0.068500
     12 C17          5.6430    -0.3880     5.8090 ca         1 0VM      -0.157500
     13 C18          4.6130     0.1240     5.0300 ca         1 0VM       0.167600
     14 C19          3.5350     0.7580     5.6350 ca         1 0VM      -0.157500
     15 C20          3.4900     0.8800     7.0100 ca         1 0VM      -0.068500
     16 N1           4.6600    -0.0000     3.6370 nu         1 0VM      -0.684600
     17 C7          -0.7160     0.0060    -1.2400 cg         1 0VM       0.237800
     18 N2          -1.3010     0.0170    -2.2140 n1         1 0VM      -0.358800
     19 C1           2.0300    -4.6390     9.2030 ca         1 0VM      -0.303300
     20 C2           2.7950    -4.1230    10.3170 ca         1 0VM      -0.121000
     21 C3           3.4270    -3.1680    10.4360 ca         1 0VM      -0.213600
     22 C4           3.4540    -2.3670     9.2920 ca         1 0VM       0.539600
     23 N5           2.7950    -2.6770     8.1280 nb         1 0VM      -0.676000
     24 C6           2.1180    -3.7920     8.1370 ca         1 0VM       0.450200
     25 F1           3.9730    -3.5100    12.6600 f          1 0VM      -0.223300
     26 F3           5.6840    -2.6130    11.3850 f          1 0VM      -0.223300
     27 F2           3.9120    -1.4500    11.9650 f          1 0VM      -0.223300
     28 H1           1.8070    -0.1180    -0.9950 ha         1 0VM       0.141000
     29 H2          -0.5400    -0.0790     3.3530 ha         1 0VM       0.155000
     30 H3          -1.7010     0.0810     0.8010 ha         1 0VM       0.160000
     31 H4           4.0820    -0.2920     0.8480 hn         1 0VM       0.308700
     32 H6           6.1860    -0.4620     8.0700 ha         1 0VM       0.172500
     33 H7           6.2450    -0.9180     5.0810 ha         1 0VM       0.163000
     34 H8           2.8710     1.1840     4.8930 ha         1 0VM       0.163000
     35 H9           2.6400     1.4730     7.3270 ha         1 0VM       0.172500
     36 H10          5.4830     0.3950     3.2250 hn         1 0VM       0.447800
     37 H11          1.6150    -5.6070     9.4560 ha         1 0VM       0.166000
     38 H12          2.5480    -4.8230    11.1060 ha         1 0VM       0.122000
     39 H13          1.4350    -3.9660     7.3140 h4         1 0VM       0.013100
     40 O1           4.4700     0.4830     9.1400 os         1 0VM      -0.430400
     41 C5           4.1740    -2.8680    11.7750 c3         1 0VM       0.717200
@<TRIPOS>BOND
     1    18    17 3
     2    19    24 ar
     3    19    20 ar
     4    24    23 ar
     5    17     1 1
     6    20    21 ar
     7     2     1 ar
     8     2     3 ar
     9    23    22 ar
    10     1     6 ar
    11    21    22 ar
    12    21    41 1
    13    26    41 1
    14    22    40 1
    15     3     7 1
    16     3     4 ar
    17     7     8 1
    18    41    25 1
    19    41    27 1
    20    11    12 ar
    21    11    10 ar
    22     6     5 ar
    23    40    10 1
    24    12    13 ar
    25    10    15 ar
    26     4     5 ar
    27     4     9 1
    28     8    16 1
    29     8     9 2
    30    13    16 1
    31    13    14 ar
    32    15    14 ar
    33     2    28 1
    34     5    29 1
    35     6    30 1
    36     7    31 1
    37    11    32 1
    38    12    33 1
    39    14    34 1
    40    15    35 1
    41    16    36 1
    42    19    37 1
    43    20    38 1
    44    24    39 1
@<TRIPOS>SUBSTRUCTURE
     1 0VM         1 TEMP              0 ****  ****    0 ROOT
