@<TRIPOS>MOLECULE
0VM
   41    44     1     0     0
SMALL
bcc


@<TRIPOS>ATOM
      1 C8           0.3420     0.0940    -0.1110 ca         1 0VM      -0.012000
      2 C9           1.7260    -0.0420     0.0210 ca         1 0VM      -0.088000
      3 C10          2.2470    -0.0120     1.3160 ca         1 0VM      -0.085200
      4 C11          1.3930     0.1610     2.4810 ca         1 0VM       0.104400
      5 C13          0.0080     0.2950     2.3010 ca         1 0VM      -0.083000
      6 C14         -0.4990     0.2600     1.0130 ca         1 0VM      -0.111000
      7 N3           3.5540    -0.1100     1.8010 na         1 0VM      -0.279300
      8 C12          3.4610    -0.0080     3.2190 cc         1 0VM       0.600700
      9 N4           2.1730     0.1700     3.6470 nd         1 0VM      -0.598100
     10 C15          8.0620     2.0990     3.4200 ca         1 0VM       0.085100
     11 C16          6.8600     2.5440     2.8600 ca         1 0VM      -0.098500
     12 C17          5.6970     1.8120     3.0810 ca         1 0VM      -0.147000
     13 C18          5.7320     0.6220     3.8360 ca         1 0VM       0.105600
     14 C19          6.9600     0.1950     4.3950 ca         1 0VM      -0.147000
     15 C20          8.1200     0.9310     4.1880 ca         1 0VM      -0.098500
     16 N1           4.5930    -0.1980     4.0430 nu         1 0VM      -0.658600
     17 C7          -0.2380     0.0650    -1.4090 cg         1 0VM       0.235800
     18 N2          -0.7140     0.0410    -2.4700 n1         1 0VM      -0.366800
     19 C1          12.5110     1.7170     1.2010 ca         1 0VM      -0.285300
     20 C2          12.4920     2.9760     1.7990 ca         1 0VM      -0.018000
     21 C3          11.3580     3.3800     2.5090 ca         1 0VM      -0.309600
     22 C4          10.2660     2.4740     2.5870 ca         1 0VM       0.672600
     23 N5          10.2700     1.2430     2.0110 nb         1 0VM      -0.716000
     24 C6          11.3780     0.8930     1.3370 ca         1 0VM       0.458200
     25 F1          10.2770     5.5490     2.7270 f          1 0VM      -0.232300
     26 F3          12.4240     5.5090     3.0020 f          1 0VM      -0.232300
     27 F2          11.1280     4.7030     4.5380 f          1 0VM      -0.232300
     28 H1           2.3720    -0.1710    -0.8570 ha         1 0VM       0.149000
     29 H2          -0.6540     0.4260     3.1700 ha         1 0VM       0.156000
     30 H3          -1.5840     0.3640     0.8530 ha         1 0VM       0.147000
     31 H4           4.3710    -0.2740     1.2760 hn         1 0VM       0.318700
     32 H6           6.8360     3.4730     2.2710 ha         1 0VM       0.156500
     33 H7           4.7480     2.1880     2.6660 ha         1 0VM       0.150000
     34 H8           7.0060    -0.7260     4.9970 ha         1 0VM       0.150000
     35 H9           9.0770     0.5970     4.6150 ha         1 0VM       0.156500
     36 H10          4.3530    -0.3060     5.0130 hn         1 0VM       0.442800
     37 H11         13.3860     1.3720     0.6360 ha         1 0VM       0.158000
     38 H12         13.3580     3.6540     1.7180 ha         1 0VM       0.164000
     39 H13         11.3490    -0.1140     0.8780 h4         1 0VM       0.034100
     40 O1           9.1730     2.9400     3.2960 os         1 0VM      -0.355400
     41 C5          11.2940     4.7440     3.1760 c3         1 0VM       0.710200
@<TRIPOS>BOND
     1     1     2 ar  
     2     1     6 ar  
     3     1    17 1   
     4     2     3 ar  
     5     2    28 1   
     6     3     4 ar  
     7     3     7 1   
     8     4     5 ar  
     9     4     9 1   
    10     5     6 ar  
    11     5    29 1   
    12     6    30 1   
    13     7     8 1   
    14     7    31 1   
    15     8     9 2   
    16     8    16 1   
    17    10    11 ar  
    18    10    15 ar  
    19    10    40 1   
    20    11    12 ar  
    21    11    32 1   
    22    12    13 ar  
    23    12    33 1   
    24    13    14 ar  
    25    13    16 1   
    26    14    15 ar  
    27    14    34 1   
    28    15    35 1   
    29    16    36 1   
    30    17    18 3   
    31    19    20 ar  
    32    19    24 ar  
    33    19    37 1   
    34    20    21 ar  
    35    20    38 1   
    36    21    22 ar  
    37    21    41 1   
    38    22    23 ar  
    39    22    40 1   
    40    23    24 ar  
    41    24    39 1   
    42    25    41 1   
    43    26    41 1   
    44    27    41 1   
@<TRIPOS>SUBSTRUCTURE
     1 0VM         1 TEMP              0 ****  ****    0 ROOT
