@<TRIPOS>MOLECULE
0VN
   40    42     1     0     0
SMALL
bcc


@<TRIPOS>ATOM
      1 C4           0.0000     0.0000     0.0000 ca         1 0VN      -0.005000
      2 C5           1.3960     0.0000     0.0000 ca         1 0VN      -0.037000
      3 C6           2.0780     0.0000     1.2020 ca         1 0VN      -0.292200
      4 C8           1.3660     0.0000     2.4160 ca         1 0VN       0.106400
      5 C9          -0.0340    -0.0010     2.4000 ca         1 0VN      -0.066000
      6 C10         -0.7030    -0.0010     1.2130 ca         1 0VN      -0.059000
      7 N3           3.4220     0.0010     1.5430 na         1 0VN       0.220700
      8 C11          3.4920     0.0010     2.9050 cc         1 0VN       0.349700
      9 N4           2.2830     0.0000     3.4140 nd         1 0VN      -0.585100
     10 N1           4.6600     0.0010     3.6380 nu         1 0VN      -0.257600
     11 C7          -0.7160     0.0060    -1.2410 cg         1 0VN       0.238800
     12 N2          -1.2660     0.0120    -2.2350 n1         1 0VN      -0.390800
     13 C12          4.5150    -0.3380     7.7880 ca         1 0VN      -0.065300
     14 C13          3.5310    -0.9250     7.0130 ca         1 0VN      -0.087500
     15 C14          3.5760    -0.8140     5.6360 ca         1 0VN      -0.132000
     16 C15          4.6110    -0.1120     5.0310 ca         1 0VN      -0.071400
     17 C16          5.5980     0.4750     5.8120 ca         1 0VN      -0.132000
     18 C17          5.5470     0.3610     7.1880 ca         1 0VN      -0.087500
     19 C1           5.6890    -1.1450     9.5640 c3         1 0VN      -0.014100
     20 C2           4.8130     1.0330     9.6520 c3         1 0VN      -0.014100
     21 C3           3.2950    -0.9920     9.7030 c3         1 0VN      -0.014100
     22 H1           1.8220    -0.0800    -0.9930 ha         1 0VN       0.113000
     23 H2          -0.3670     0.3020     3.3850 ha         1 0VN       0.125000
     24 H3          -1.7820     0.0330     1.1210 ha         1 0VN       0.113000
     25 H4           4.0490     0.4300     0.8920 hn         1 0VN       0.127700
     26 H6           5.5610     0.3810     3.4240 hn         1 0VN       0.283800
     27 H7           2.4670    -1.1090     7.0980 ha         1 0VN       0.125000
     28 H8           2.8210    -1.3850     5.1110 ha         1 0VN       0.123500
     29 H9           6.2150     0.7150     4.9550 ha         1 0VN       0.123500
     30 H10          6.3820     0.8690     7.6560 ha         1 0VN       0.125000
     31 H11          6.6780    -0.7420     9.3800 hc         1 0VN       0.007811
     32 H12          5.8540    -1.2970    10.6230 hc         1 0VN       0.007811
     33 H13          5.9620    -2.0510     9.0370 hc         1 0VN       0.007811
     34 H14          4.0660     1.7480     9.3270 hc         1 0VN       0.007811
     35 H15          4.8310     1.0710    10.7340 hc         1 0VN       0.007811
     36 H16          5.7290     1.6080     9.5920 hc         1 0VN       0.007811
     37 H17          3.3450    -1.9230     9.1510 hc         1 0VN       0.007811
     38 H18          3.1930    -1.0280    10.7810 hc         1 0VN       0.007811
     39 H19          2.4700    -0.4080     9.3120 hc         1 0VN       0.007811
     40 C18          4.4590    -0.4550     9.2890 c3         1 0VN       0.066300
@<TRIPOS>BOND
     1     1     2 ar  
     2     1     6 ar  
     3     1    11 1   
     4     2     3 ar  
     5     2    22 1   
     6     3     4 ar  
     7     3     7 1   
     8     4     5 ar  
     9     4     9 1   
    10     5     6 ar  
    11     5    23 1   
    12     6    24 1   
    13     7     8 1   
    14     7    25 1   
    15     8     9 2   
    16     8    10 1   
    17    10    16 1   
    18    10    26 1   
    19    11    12 3   
    20    13    14 ar  
    21    13    18 ar  
    22    13    40 1   
    23    14    15 ar  
    24    14    27 1   
    25    15    16 ar  
    26    15    28 1   
    27    16    17 ar  
    28    17    18 ar  
    29    17    29 1   
    30    18    30 1   
    31    19    31 1   
    32    19    32 1   
    33    19    33 1   
    34    19    40 1   
    35    20    34 1   
    36    20    35 1   
    37    20    36 1   
    38    20    40 1   
    39    21    37 1   
    40    21    38 1   
    41    21    39 1   
    42    21    40 1   
@<TRIPOS>SUBSTRUCTURE
     1 0VN         1 TEMP              0 ****  ****    0 ROOT
