@<TRIPOS>MOLECULE
0VN
   40    42     1     0     0
SMALL
bcc


@<TRIPOS>ATOM
      1 C4           0.2960    -0.4240     0.0510 ca         1 0VN      -0.020000
      2 C5           1.6620    -0.1440     0.1530 ca         1 0VN      -0.086000
      3 C6           2.1740     0.0680     1.4330 ca         1 0VN      -0.089200
      4 C8           1.3300     0.0020     2.6160 ca         1 0VN       0.114400
      5 C9          -0.0350    -0.2820     2.4680 ca         1 0VN      -0.091000
      6 C10         -0.5330    -0.4900     1.1910 ca         1 0VN      -0.108000
      7 N3           3.4630     0.3610     1.8890 na         1 0VN      -0.291300
      8 C11          3.3700     0.4700     3.3050 cc         1 0VN       0.615700
      9 N4           2.0970     0.2450     3.7660 nd         1 0VN      -0.611100
     10 N1           4.4590     0.8610     4.1150 nu         1 0VN      -0.645600
     11 C7          -0.2720    -0.6470    -1.2330 cg         1 0VN       0.237800
     12 N2          -0.7390    -0.8310    -2.2830 n1         1 0VN      -0.372800
     13 C12          8.4410     0.0490     2.8680 ca         1 0VN      -0.061300
     14 C13          7.6640     1.0110     2.2150 ca         1 0VN      -0.113500
     15 C14          6.3520     1.2660     2.6060 ca         1 0VN      -0.144500
     16 C15          5.7730     0.5490     3.6700 ca         1 0VN       0.083600
     17 C16          6.5560    -0.4190     4.3340 ca         1 0VN      -0.144500
     18 C17          7.8660    -0.6550     3.9360 ca         1 0VN      -0.113500
     19 C1           9.9790    -1.7180     2.0710 c3         1 0VN      -0.087100
     20 C2          10.7870     0.0270     3.6540 c3         1 0VN      -0.087100
     21 C3          10.3270     0.6020     1.2950 c3         1 0VN      -0.087100
     22 H1           2.3000    -0.0940    -0.7400 ha         1 0VN       0.146000
     23 H2          -0.6900    -0.3350     3.3490 ha         1 0VN       0.155000
     24 H3          -1.6040    -0.7140     1.0570 ha         1 0VN       0.145000
     25 H4           4.2740     0.4750     1.3410 hn         1 0VN       0.315700
     26 H6           4.3060     0.6410     5.0830 hn         1 0VN       0.436800
     27 H7           8.0790     1.5960     1.3790 ha         1 0VN       0.141000
     28 H8           5.7820     2.0570     2.0910 ha         1 0VN       0.141000
     29 H9           6.1370    -0.9920     5.1770 ha         1 0VN       0.141000
     30 H10          8.4580    -1.4140     4.4730 ha         1 0VN       0.141000
     31 H11          9.3060    -1.9390     1.2090 hc         1 0VN       0.039033
     32 H12          9.6990    -2.3820     2.9240 hc         1 0VN       0.039033
     33 H13         11.0300    -1.9470     1.7730 hc         1 0VN       0.039033
     34 H14         11.8450    -0.1860     3.3660 hc         1 0VN       0.039033
     35 H15         10.5190    -0.6190     4.5230 hc         1 0VN       0.039033
     36 H16         10.7090     1.0960     3.9650 hc         1 0VN       0.039033
     37 H17          9.6910     0.4150     0.3970 hc         1 0VN       0.039033
     38 H18         10.2880     1.6870     1.5530 hc         1 0VN       0.039033
     39 H19         11.3820     0.3410     1.0370 hc         1 0VN       0.039033
     40 C18          9.8630    -0.2490     2.4700 c3         1 0VN      -0.011700
@<TRIPOS>BOND
     1     1     2 ar  
     2     1     6 ar  
     3     1    11 1   
     4     2     3 ar  
     5     2    22 1   
     6     3     4 ar  
     7     3     7 1   
     8     4     5 ar  
     9     4     9 1   
    10     5     6 ar  
    11     5    23 1   
    12     6    24 1   
    13     7     8 1   
    14     7    25 1   
    15     8     9 2   
    16     8    10 1   
    17    10    16 1   
    18    10    26 1   
    19    11    12 3   
    20    13    14 ar  
    21    13    18 ar  
    22    13    40 1   
    23    14    15 ar  
    24    14    27 1   
    25    15    16 ar  
    26    15    28 1   
    27    16    17 ar  
    28    17    18 ar  
    29    17    29 1   
    30    18    30 1   
    31    19    31 1   
    32    19    32 1   
    33    19    33 1   
    34    19    40 1   
    35    20    34 1   
    36    20    35 1   
    37    20    36 1   
    38    20    40 1   
    39    21    37 1   
    40    21    38 1   
    41    21    39 1   
    42    21    40 1   
@<TRIPOS>SUBSTRUCTURE
     1 0VN         1 TEMP              0 ****  ****    0 ROOT
