@<TRIPOS>MOLECULE
0VO
   64    68     1     0     0
SMALL
bcc


@<TRIPOS>ATOM
      1 C1           0.0000     0.0000     0.0000 ca         1 0VO      -0.083000
      2 C5           2.0730     0.0000     1.1980 ca         1 0VO      -0.110000
      3 C6           1.3820     0.0000     0.0000 ca         1 0VO      -0.078000
      4 C9           8.6700    -4.8410    -0.0140 c3         1 0VO      -0.004000
      5 C10          3.5790    -0.0050     1.1990 c3         1 0VO       0.106000
      6 C11          7.6750    -5.1800     2.2230 c3         1 0VO      -0.118000
      7 C12          6.8980    -4.7170     3.3770 c3         1 0VO      -0.153000
      8 C16          6.7030    -5.5260     4.4170 c2         1 0VO      -0.325000
      9 C18          7.3050    -3.0030     1.1800 ca         1 0VO       0.014000
     10 C19          8.1520    -1.8910     1.1870 ca         1 0VO      -0.141000
     11 C24          5.9050    -5.0480     5.6030 DU         1 0VO       0.150000
     12 C25          4.6880    -5.9560     5.7960 c3         1 0VO      -0.148500
     13 C2          -0.6920     0.0000     1.1960 ca         1 0VO      -0.087000
     14 C3          -0.0020    -0.0050     2.3940 ca         1 0VO      -0.104000
     15 C4           1.3800    -0.0110     2.3950 ca         1 0VO      -0.052000
     16 C48         -0.7560    -0.0040     3.6990 c3         1 0VO       0.126000
     17 O49          0.1720    -0.0100     4.7850 oh         1 0VO      -0.317000
     18 C52         -2.1990     0.0070     1.1950 c3         1 0VO       0.124000
     19 O53         -2.6750     0.0110    -0.1520 oh         1 0VO      -0.318000
     20 O1           4.0510    -1.3550     1.1850 os         1 0VO      -0.183000
     21 C14          5.3970    -1.5380     1.1840 ca         1 0VO       0.117000
     22 C17          5.9210    -2.8200     1.1750 ca         1 0VO      -0.141000
     23 C20          7.6190    -0.6200     1.1950 ca         1 0VO      -0.053000
     24 C21          6.2470    -0.4410     1.1960 ca         1 0VO      -0.219000
     25 C26          6.7790    -5.0930     6.8580 c3         1 0VO      -0.148500
     26 O2           5.4680    -3.7070     5.3750 oh         1 0VO      -0.316000
     27 C28          5.9340    -4.7290     8.0800 c3         1 0VO      -0.134000
     28 C29          3.8800    -6.0100     4.4980 c3         1 0VO      -0.134000
     29 C8           7.7200    -5.3870    -1.0820 c3         1 0VO      -0.114000
     30 H1          -0.5410     0.0020    -0.9380 ha         1 0VO       0.126000
     31 H2           1.9240    -0.0000    -0.9380 ha         1 0VO       0.107000
     32 H4           9.2480    -4.0240    -0.4290 hc         1 0VO       0.054000
     33 H5           9.3390    -5.6280     0.3110 hc         1 0VO       0.054000
     34 H6           3.9430     0.5140     0.3210 h1         1 0VO       0.044000
     35 H7           3.9420     0.4940     2.0900 h1         1 0VO       0.044000
     36 H8           8.0580    -4.5220     2.9930 DU         1 0VO       0.261500
     37 H10          6.5150    -5.3750     2.6060 DU         1 0VO       0.261500
     38 H12          5.6210    -5.4710     4.4450 DU         1 0VO       0.165000
     39 H14          9.2270    -2.0280     1.1860 ha         1 0VO       0.111000
     40 H15          5.0200    -6.9540     6.0560 hc         1 0VO       0.072750
     41 H16          4.0670    -5.5640     6.5920 hc         1 0VO       0.072750
     42 H17          1.9210    -0.0130     3.3330 ha         1 0VO       0.129000
     43 H18         -1.3820    -0.8860     3.7540 h1         1 0VO       0.031000
     44 H19         -1.3750     0.8820     3.7570 h1         1 0VO       0.031000
     45 H20         -0.2850     0.1750     5.5890 ho         1 0VO       0.189000
     46 H21         -2.5560     0.8920     1.7080 h1         1 0VO       0.031000
     47 H22         -2.5640    -0.8770     1.7040 h1         1 0VO       0.031000
     48 H23         -3.6170     0.0320    -0.1520 ho         1 0VO       0.190000
     49 H24          5.2620    -3.6730     1.0650 ha         1 0VO       0.120000
     50 H25          8.2760     0.2420     1.2020 ha         1 0VO       0.100000
     51 H26          5.8340     0.5610     1.2020 ha         1 0VO       0.119000
     52 H27          7.5920    -4.3840     6.7570 hc         1 0VO       0.072750
     53 H28          7.1820    -6.0910     6.9820 hc         1 0VO       0.072750
     54 H29          5.9510    -3.1200     5.9320 ho         1 0VO       0.209000
     55 H30          5.1130    -4.0920     7.7750 hc         1 0VO       0.051667
     56 H31          6.5500    -4.2040     8.8010 hc         1 0VO       0.051667
     57 H32          5.5430    -5.6330     8.5310 hc         1 0VO       0.051667
     58 H33          4.3420    -6.7120     3.8140 hc         1 0VO       0.051667
     59 H34          3.8580    -5.0260     4.0460 hc         1 0VO       0.051667
     60 H35          2.8690    -6.3300     4.7150 hc         1 0VO       0.051667
     61 H36          6.9330    -5.9590    -0.6060 hc         1 0VO       0.041000
     62 H37          8.2710    -6.0260    -1.7620 hc         1 0VO       0.041000
     63 H38          7.2850    -4.5620    -1.6340 hc         1 0VO       0.041000
     64 C7           7.8720    -4.3630     1.1720 c2         1 0VO      -0.288000
@<TRIPOS>BOND
     1     1     3 1   
     2     1    13 1   
     3     1    30 1   
     4     2     3 1   
     5     2     5 1   
     6     2    15 1   
     7     3    31 1   
     8     4    29 1   
     9     4    32 1   
    10     4    33 1   
    11     4    64 1   
    12     5    20 1   
    13     5    34 1   
    14     5    35 1   
    15     6     7 1   
    16     6    36 1   
    17     6    37 1   
    18     6    64 1   
    19     7     8 1   
    20     7    36 1   
    21     7    37 1   
    22     8    11 1   
    23     8    38 1   
    24     9    10 1   
    25     9    22 1   
    26     9    64 1   
    27    10    23 1   
    28    10    39 1   
    29    11    12 1   
    30    11    25 1   
    31    11    26 1   
    32    11    38 1   
    33    12    28 1   
    34    12    40 1   
    35    12    41 1   
    36    13    14 1   
    37    13    18 1   
    38    14    15 1   
    39    14    16 1   
    40    15    42 1   
    41    16    17 1   
    42    16    43 1   
    43    16    44 1   
    44    17    45 1   
    45    18    19 1   
    46    18    46 1   
    47    18    47 1   
    48    19    48 1   
    49    20    21 1   
    50    21    22 1   
    51    21    24 1   
    52    22    49 1   
    53    23    24 1   
    54    23    50 1   
    55    24    51 1   
    56    25    27 1   
    57    25    52 1   
    58    25    53 1   
    59    26    54 1   
    60    27    55 1   
    61    27    56 1   
    62    27    57 1   
    63    28    58 1   
    64    28    59 1   
    65    28    60 1   
    66    29    61 1   
    67    29    62 1   
    68    29    63 1   
@<TRIPOS>SUBSTRUCTURE
     1 0VO         1 TEMP              0 ****  ****    0 ROOT
