@<TRIPOS>MOLECULE
0VO
   64    65     1     0     0
SMALL
bcc


@<TRIPOS>ATOM
      1 C1          -0.6840     0.0230     0.1290 ca         1 0VO      -0.111000
      2 C5           1.7230     0.1110     0.3190 ca         1 0VO      -0.097300
      3 C6           0.5730     0.0400    -0.4710 ca         1 0VO      -0.098000
      4 C9           4.6310     3.8090    -5.4840 c3         1 0VO      -0.042200
      5 C10          3.0860     0.1000    -0.2890 c3         1 0VO       0.176700
      6 C11          5.4520     1.8590    -6.7570 ce         1 0VO      -0.120000
      7 C12          5.9180     0.5020    -6.9520 ce         1 0VO      -0.141000
      8 C16          6.3140     0.0440    -8.1470 c2         1 0VO      -0.137200
      9 C18          5.2160     1.6760    -4.2960 ca         1 0VO      -0.018800
     10 C19          6.4460     1.1500    -3.8680 ca         1 0VO      -0.156000
     11 C24          6.7810    -1.3550    -8.4220 c3         1 0VO       0.185000
     12 C25          5.5850    -2.2690    -8.7440 c3         1 0VO      -0.101400
     13 C2          -0.8090     0.0670     1.5210 ca         1 0VO      -0.050300
     14 C3           0.3450     0.1330     2.3180 ca         1 0VO      -0.092300
     15 C4           1.6040     0.1640     1.7100 ca         1 0VO      -0.118000
     16 C48          0.2770     0.1270     3.8130 c3         1 0VO       0.177700
     17 O49         -0.6680     1.0950     4.2500 oh         1 0VO      -0.601800
     18 C52         -2.1550     0.0710     2.1680 c3         1 0VO       0.174700
     19 O53         -3.1350    -0.3500     1.2290 oh         1 0VO      -0.605800
     20 O1           2.9970     0.7250    -1.5780 os         1 0VO      -0.326900
     21 C14          4.1870     0.8320    -2.2730 ca         1 0VO       0.126100
     22 C17          4.0820     1.5180    -3.4970 ca         1 0VO      -0.147000
     23 C20          6.5370     0.4810    -2.6520 ca         1 0VO      -0.099000
     24 C21          5.4130     0.3130    -1.8430 ca         1 0VO      -0.205000
     25 C26          7.6250    -1.9540    -7.2910 c3         1 0VO      -0.101400
     26 O2           7.5760    -1.2450    -9.6140 oh         1 0VO      -0.600800
     27 C28          8.8950    -1.1810    -7.0460 c3         1 0VO      -0.094100
     28 C29          4.6910    -2.5490    -7.5680 c3         1 0VO      -0.094100
     29 C8           5.7230     4.7630    -5.0630 c3         1 0VO      -0.089100
     30 H1          -1.5930    -0.0320    -0.4910 ha         1 0VO       0.157000
     31 H2           0.6670     0.0100    -1.5680 ha         1 0VO       0.150000
     32 H4           4.2230     4.1300    -6.4810 hc         1 0VO       0.048200
     33 H5           3.7840     3.8620    -4.7470 hc         1 0VO       0.048200
     34 H6           3.8180     0.6660     0.3480 h1         1 0VO       0.047200
     35 H7           3.4400    -0.9600    -0.4190 h1         1 0VO       0.047200
     36 H8           5.3610     2.4720    -7.6730 ha         1 0VO       0.126000
     37 H10          5.9300    -0.1420    -6.0550 ha         1 0VO       0.133000
     38 H12          6.3180     0.6930    -9.0410 ha         1 0VO       0.141000
     39 H14          7.3370     1.2730    -4.5010 ha         1 0VO       0.140000
     40 H15          4.9950    -1.7830    -9.5650 hc         1 0VO       0.046200
     41 H16          5.9850    -3.2360    -9.1510 hc         1 0VO       0.046200
     42 H17          2.5100     0.2320     2.3330 ha         1 0VO       0.128000
     43 H18         -0.0550    -0.8890     4.1690 h1         1 0VO       0.031200
     44 H19          1.2870     0.3500     4.2530 h1         1 0VO       0.031200
     45 H20         -0.4950     1.2390     5.1880 ho         1 0VO       0.402000
     46 H21         -2.1600    -0.6260     3.0520 h1         1 0VO       0.045200
     47 H22         -2.3860     1.1120     2.5320 h1         1 0VO       0.045200
     48 H23         -3.9890    -0.2090     1.6530 ho         1 0VO       0.403000
     49 H24          3.1050     1.9130    -3.8100 ha         1 0VO       0.152000
     50 H25          7.5050     0.0760    -2.3210 ha         1 0VO       0.132000
     51 H26          5.5050    -0.2200    -0.8870 ha         1 0VO       0.136000
     52 H27          7.8750    -3.0140    -7.5600 hc         1 0VO       0.046200
     53 H28          7.0090    -1.9820    -6.3550 hc         1 0VO       0.046200
     54 H29          7.9580    -2.1150    -9.7730 ho         1 0VO       0.399000
     55 H30          8.6580    -0.1490    -6.6890 hc         1 0VO       0.038867
     56 H31          9.5160    -1.6930    -6.2730 hc         1 0VO       0.038867
     57 H32          9.4890    -1.0970    -7.9880 hc         1 0VO       0.038867
     58 H33          4.3840    -1.5980    -7.0680 hc         1 0VO       0.038867
     59 H34          3.7700    -3.0820    -7.9090 hc         1 0VO       0.038867
     60 H35          5.2070    -3.1930    -6.8150 hc         1 0VO       0.038867
     61 H36          6.1380     4.4720    -4.0680 hc         1 0VO       0.036700
     62 H37          5.3150     5.8000    -4.9870 hc         1 0VO       0.036700
     63 H38          6.5560     4.7620    -5.8060 hc         1 0VO       0.036700
     64 C7           5.1230     2.4000    -5.5680 cf         1 0VO      -0.061400
@<TRIPOS>BOND
     1     1     3 ar  
     2     1    13 ar  
     3     1    30 1   
     4     2     3 ar  
     5     2     5 1   
     6     2    15 ar  
     7     3    31 1   
     8     4    29 1   
     9     4    32 1   
    10     4    33 1   
    11     4    64 1   
    12     5    20 1   
    13     5    34 1   
    14     5    35 1   
    15     6     7 1   
    16     6    36 1   
    17     6    64 2   
    18     7     8 2   
    19     7    37 1   
    20     8    11 1   
    21     8    38 1   
    22     9    10 ar  
    23     9    22 ar  
    24     9    64 1   
    25    10    23 ar  
    26    10    39 1   
    27    11    12 1   
    28    11    25 1   
    29    11    26 1   
    30    12    28 1   
    31    12    40 1   
    32    12    41 1   
    33    13    14 ar  
    34    13    18 1   
    35    14    15 ar  
    36    14    16 1   
    37    15    42 1   
    38    16    17 1   
    39    16    43 1   
    40    16    44 1   
    41    17    45 1   
    42    18    19 1   
    43    18    46 1   
    44    18    47 1   
    45    19    48 1   
    46    20    21 1   
    47    21    22 ar  
    48    21    24 ar  
    49    22    49 1   
    50    23    24 ar  
    51    23    50 1   
    52    24    51 1   
    53    25    27 1   
    54    25    52 1   
    55    25    53 1   
    56    26    54 1   
    57    27    55 1   
    58    27    56 1   
    59    27    57 1   
    60    28    58 1   
    61    28    59 1   
    62    28    60 1   
    63    29    61 1   
    64    29    62 1   
    65    29    63 1   
@<TRIPOS>SUBSTRUCTURE
     1 0VO         1 TEMP              0 ****  ****    0 ROOT
