@<TRIPOS>MOLECULE
molecule
   64    65     1     0     0
SMALL
bcc


@<TRIPOS>ATOM
      1 C1           0.0000     0.0000     0.0000 ca         1 0VO      -0.106000
      2 C5           2.0730     0.0000     1.1980 ca         1 0VO      -0.099300
      3 C6           1.3820     0.0000     0.0000 ca         1 0VO      -0.106000
      4 C9           8.6700    -4.8410    -0.0140 c3         1 0VO      -0.037200
      5 C10          3.5790    -0.0050     1.1990 c3         1 0VO       0.188700
      6 C11          7.6750    -5.1800     2.2230 ce         1 0VO      -0.129000
      7 C12          6.8980    -4.7170     3.3770 ce         1 0VO      -0.126000
      8 C16          6.7030    -5.5260     4.4170 c2         1 0VO      -0.196200
      9 C18          7.3050    -3.0030     1.1800 ca         1 0VO      -0.015800
     10 C19          8.1520    -1.8910     1.1870 ca         1 0VO      -0.159000
     11 C24          5.9050    -5.0480     5.6030 c3         1 0VO       0.189000
     12 C25          4.6880    -5.9560     5.7960 c3         1 0VO      -0.089400
     13 C2          -0.6920     0.0000     1.1960 ca         1 0VO      -0.077300
     14 C3          -0.0020    -0.0050     2.3940 ca         1 0VO      -0.093300
     15 C4           1.3800    -0.0110     2.3950 ca         1 0VO      -0.074000
     16 C48         -0.7560    -0.0040     3.6990 c3         1 0VO       0.187700
     17 O49          0.1720    -0.0100     4.7850 oh         1 0VO      -0.606800
     18 C52         -2.1990     0.0070     1.1950 c3         1 0VO       0.185700
     19 O53         -2.6750     0.0110    -0.1520 oh         1 0VO      -0.607800
     20 O1           4.0510    -1.3550     1.1850 os         1 0VO      -0.320900
     21 C14          5.3970    -1.5380     1.1840 ca         1 0VO       0.144100
     22 C17          5.9210    -2.8200     1.1750 ca         1 0VO      -0.145000
     23 C20          7.6190    -0.6200     1.1950 ca         1 0VO      -0.092000
     24 C21          6.2470    -0.4410     1.1960 ca         1 0VO      -0.226000
     25 C26          6.7790    -5.0930     6.8580 c3         1 0VO      -0.089400
     26 O2           5.4680    -3.7070     5.3750 oh         1 0VO      -0.597800
     27 C28          5.9340    -4.7290     8.0800 c3         1 0VO      -0.094100
     28 C29          3.8800    -6.0100     4.4980 c3         1 0VO      -0.094100
     29 C8           7.7200    -5.3870    -1.0820 c3         1 0VO      -0.088100
     30 H1          -0.5410     0.0020    -0.9380 ha         1 0VO       0.155000
     31 H2           1.9240    -0.0000    -0.9380 ha         1 0VO       0.134000
     32 H4           9.3390    -5.6280     0.3110 hc         1 0VO       0.047200
     33 H5           9.2480    -4.0240    -0.4290 hc         1 0VO       0.047200
     34 H6           3.9430     0.5140     0.3210 h1         1 0VO       0.041200
     35 H7           3.9420     0.4940     2.0900 h1         1 0VO       0.041200
     36 H8           8.0900    -6.1810     2.2160 ha         1 0VO       0.128000
     37 H10          6.4830    -3.7160     3.3840 ha         1 0VO       0.157000
     38 H12          7.1180    -6.5260     4.4110 ha         1 0VO       0.126000
     39 H14          9.2270    -2.0280     1.1860 ha         1 0VO       0.132000
     40 H15          5.0200    -6.9540     6.0560 hc         1 0VO       0.047450
     41 H16          4.0670    -5.5640     6.5920 hc         1 0VO       0.047450
     42 H17          1.9210    -0.0130     3.3330 ha         1 0VO       0.159000
     43 H18         -1.3750     0.8820     3.7570 h1         1 0VO       0.028700
     44 H19         -1.3820    -0.8870     3.7540 h1         1 0VO       0.028700
     45 H20         -0.3000    -0.0490     5.6010 ho         1 0VO       0.405000
     46 H21         -2.5560     0.8920     1.7080 h1         1 0VO       0.030200
     47 H22         -2.5640    -0.8770     1.7040 h1         1 0VO       0.030200
     48 H23         -3.6180     0.0020    -0.1520 ho         1 0VO       0.405000
     49 H24          5.2620    -3.6730     1.0640 ha         1 0VO       0.152000
     50 H25          8.2760     0.2420     1.2020 ha         1 0VO       0.129000
     51 H26          5.8340     0.5610     1.2020 ha         1 0VO       0.133000
     52 H27          7.1820    -6.0900     6.9820 hc         1 0VO       0.047450
     53 H28          7.5920    -4.3840     6.7570 hc         1 0VO       0.047450
     54 H29          6.0970    -3.1060     5.7360 ho         1 0VO       0.403000
     55 H30          5.4390    -5.6170     8.4550 hc         1 0VO       0.038700
     56 H31          6.5740    -4.3190     8.8530 hc         1 0VO       0.038700
     57 H32          5.1910    -3.9930     7.7990 hc         1 0VO       0.038700
     58 H33          4.4150    -6.6010     3.7640 hc         1 0VO       0.038700
     59 H34          2.9150    -6.4620     4.6920 hc         1 0VO       0.038700
     60 H35          3.7390    -5.0050     4.1190 hc         1 0VO       0.038700
     61 H36          6.9220    -5.9430    -0.6050 hc         1 0VO       0.037033
     62 H37          7.2990    -4.5630    -1.6460 hc         1 0VO       0.037033
     63 H38          8.2670    -6.0410    -1.7510 hc         1 0VO       0.037033
     64 C7           7.8720    -4.3630     1.1720 cf         1 0VO      -0.068400
@<TRIPOS>BOND
     1    28    12 1   
     2    25    27 1   
     3    25    11 1   
     4    12    11 1   
     5    11     8 1   
     6    11    26 1   
     7     8     7 2   
     8     7     6 1   
     9     6    64 2   
    10    22     9 ar  
    11    22    21 ar  
    12     9    64 1   
    13     9    10 ar  
    14    64     4 1   
    15     3     1 ar  
    16     3     2 ar  
    17    20    21 1   
    18    20     5 1   
    19     1    13 ar  
    20     2    15 ar  
    21     2     5 1   
    22    19    18 1   
    23    21    24 ar  
    24    13    18 1   
    25    13    14 ar  
    26    15    14 ar  
    27    10    23 ar  
    28    14    16 1   
    29     4    29 1   
    30    16    17 1   
    31    24    23 ar  
    32     1    30 1   
    33     3    31 1   
    34     4    32 1   
    35     4    33 1   
    36     5    34 1   
    37     5    35 1   
    38     6    36 1   
    39     7    37 1   
    40     8    38 1   
    41    10    39 1   
    42    12    40 1   
    43    12    41 1   
    44    15    42 1   
    45    16    43 1   
    46    16    44 1   
    47    17    45 1   
    48    18    46 1   
    49    18    47 1   
    50    19    48 1   
    51    22    49 1   
    52    23    50 1   
    53    24    51 1   
    54    25    52 1   
    55    25    53 1   
    56    26    54 1   
    57    27    55 1   
    58    27    56 1   
    59    27    57 1   
    60    28    58 1   
    61    28    59 1   
    62    28    60 1   
    63    29    61 1   
    64    29    62 1   
    65    29    63 1   
@<TRIPOS>SUBSTRUCTURE
     1 0VO         1 TEMP              0 ****  ****    0 ROOT
