@<TRIPOS>MOLECULE
0VP
   75    77     1     0     0
SMALL
bcc


@<TRIPOS>ATOM
      1 O1           0.3360    -1.3870     0.1220 os         1 0VP      -0.327900
      2 O2          -7.4320    -5.5730     3.3610 oh         1 0VP      -0.600800
      3 C9          -4.9870    -1.8950     1.6990 ca         1 0VP      -0.119000
      4 C10          1.5060    -0.5660    -0.0020 c3         1 0VP       0.175700
      5 C11         -3.8720    -3.7100     2.8500 ca         1 0VP      -0.063300
      6 C12         -5.0700    -4.4350     2.8180 ca         1 0VP      -0.104000
      7 C13         -6.1730    -2.6230     1.6730 ca         1 0VP      -0.132000
      8 C14         -0.4980    -1.0780     1.1810 ca         1 0VP       0.119100
      9 C15         -2.6750    -4.3280     3.4860 c3         1 0VP      -0.041100
     10 C16         -6.2240    -3.9040     2.2340 ca         1 0VP      -0.068300
     11 C17         -1.6770    -1.8410     1.2360 ca         1 0VP      -0.145000
     12 C18         -2.5960    -1.6270     2.2670 cp         1 0VP      -0.002000
     13 C19         -2.3380    -0.6520     3.2480 ca         1 0VP      -0.092300
     14 C20         -1.1580     0.0960     3.1730 ca         1 0VP      -0.098000
     15 C21         -0.2340    -0.1040     2.1510 ca         1 0VP      -0.200000
     16 C22         -2.7110    -4.1870     4.9970 c3         1 0VP      -0.077400
     17 C23         -1.5060    -4.8280     5.6350 c3         1 0VP      -0.093100
     18 C24         -7.4910    -4.7290     2.2020 c3         1 0VP       0.203100
     19 C25         -7.5010    -5.6300     0.9540 c3         1 0VP      -0.103400
     20 C26         -8.7370    -3.8370     2.2840 c3         1 0VP      -0.103400
     21 C27         -4.0330     0.8960     4.2070 c3         1 0VP      -0.087100
     22 C28        -10.0070    -4.5910     2.5790 c3         1 0VP      -0.096100
     23 C29         -7.5810    -4.8830    -0.3500 c3         1 0VP      -0.096100
     24 C1           2.9480    -2.7370    -2.7590 ca         1 0VP      -0.129000
     25 C2           3.7410    -1.8170    -3.4510 ca         1 0VP      -0.095300
     26 C3           3.7750    -0.4790    -3.0270 ca         1 0VP      -0.082300
     27 C4           3.0320    -0.0860    -1.9110 ca         1 0VP      -0.109000
     28 C5           2.2510    -1.0150    -1.2150 ca         1 0VP      -0.095300
     29 C6           2.2090    -2.3430    -1.6460 ca         1 0VP      -0.092000
     30 O49          5.9520     0.3010    -3.5510 oh         1 0VP      -0.596800
     31 C52          4.5320    -2.2470    -4.6460 c3         1 0VP       0.163700
     32 O53          4.7050    -3.6490    -4.7300 oh         1 0VP      -0.596800
     33 C8          -3.2810    -0.4030     4.3740 c3         1 0VP      -0.039100
     34 C7          -3.8290    -2.4260     2.2830 cp         1 0VP      -0.040000
     35 H1          -8.1860    -6.1720     3.3080 ho         1 0VP       0.401000
     36 H2          -4.9560    -0.8870     1.2580 ha         1 0VP       0.136000
     37 H3           2.1470    -0.6980     0.9130 h1         1 0VP       0.048200
     38 H4           1.1970     0.5100    -0.0930 h1         1 0VP       0.048200
     39 H5          -5.1080    -5.4390     3.2710 ha         1 0VP       0.152000
     40 H6          -7.0650    -2.1790     1.2070 ha         1 0VP       0.132000
     41 H7          -1.7390    -3.8490     3.0880 hc         1 0VP       0.052700
     42 H8          -2.6310    -5.4180     3.2170 hc         1 0VP       0.052700
     43 H9          -1.8660    -2.6010     0.4640 ha         1 0VP       0.154000
     44 H10         -0.9560     0.8590     3.9410 ha         1 0VP       0.133000
     45 H11          0.6830     0.4990     2.1220 ha         1 0VP       0.136000
     46 H12         -3.6490    -4.6610     5.3910 hc         1 0VP       0.044700
     47 H13         -2.7490    -3.0980     5.2660 hc         1 0VP       0.044700
     48 H14         -1.4640    -5.9180     5.3940 hc         1 0VP       0.032700
     49 H15         -1.5500    -4.7140     6.7450 hc         1 0VP       0.032700
     50 H16         -0.5650    -4.3530     5.2680 hc         1 0VP       0.032700
     51 H17         -8.3680    -6.3380     1.0340 hc         1 0VP       0.050700
     52 H18         -6.5640    -6.2470     0.9790 hc         1 0VP       0.050700
     53 H19         -8.5680    -3.0730     3.0890 hc         1 0VP       0.050700
     54 H20         -8.8510    -3.2890     1.3110 hc         1 0VP       0.050700
     55 H21         -3.3240     1.7560     4.1320 hc         1 0VP       0.034367
     56 H22         -4.7060     1.0650     5.0820 hc         1 0VP       0.034367
     57 H23         -4.6560     0.8720     3.2800 hc         1 0VP       0.034367
     58 H24        -10.1660    -5.4170     1.8440 hc         1 0VP       0.037533
     59 H25        -10.8810    -3.8970     2.5200 hc         1 0VP       0.037533
     60 H26         -9.9820    -5.0280     3.6070 hc         1 0VP       0.037533
     61 H27         -7.3710    -5.5780    -1.1990 hc         1 0VP       0.037533
     62 H28         -8.5990    -4.4470    -0.5020 hc         1 0VP       0.037533
     63 H29         -6.8330    -4.0530    -0.3780 hc         1 0VP       0.037533
     64 H30          2.9070    -3.7820    -3.1070 ha         1 0VP       0.148000
     65 H31          3.0620     0.9620    -1.5760 ha         1 0VP       0.132000
     66 H32          1.5810    -3.0710    -1.1080 ha         1 0VP       0.151000
     67 H33          4.3100     1.5830    -3.4130 h1         1 0VP       0.029200
     68 H34          4.3460     0.4790    -4.8710 h1         1 0VP       0.029200
     69 H35          6.4280     1.0080    -4.0030 ho         1 0VP       0.401000
     70 H36          3.9790    -1.9770    -5.5880 h1         1 0VP       0.064200
     71 H37          5.5370    -1.7380    -4.6440 h1         1 0VP       0.064200
     72 H38          5.1860    -3.9250    -3.9400 ho         1 0VP       0.403000
     73 H39         -4.0160    -1.2500     4.4550 hc         1 0VP       0.052700
     74 H40         -2.7010    -0.3770     5.3370 hc         1 0VP       0.052700
     75 C48          4.5690     0.5490    -3.7700 c3         1 0VP       0.175700
@<TRIPOS>BOND
     1     1     4 1   
     2     1     8 1   
     3     2    18 1   
     4     2    35 1   
     5     3     7 ar  
     6     3    34 ar  
     7     3    36 1   
     8     4    28 1   
     9     4    37 1   
    10     4    38 1   
    11     5     6 ar  
    12     5     9 1   
    13     5    34 ar  
    14     6    10 ar  
    15     6    39 1   
    16     7    10 ar  
    17     7    40 1   
    18     8    11 ar  
    19     8    15 ar  
    20     9    16 1   
    21     9    41 1   
    22     9    42 1   
    23    10    18 1   
    24    11    12 ar  
    25    11    43 1   
    26    12    13 ar  
    27    12    34 1   
    28    13    14 ar  
    29    13    33 1   
    30    14    15 ar  
    31    14    44 1   
    32    15    45 1   
    33    16    17 1   
    34    16    46 1   
    35    16    47 1   
    36    17    48 1   
    37    17    49 1   
    38    17    50 1   
    39    18    19 1   
    40    18    20 1   
    41    19    23 1   
    42    19    51 1   
    43    19    52 1   
    44    20    22 1   
    45    20    53 1   
    46    20    54 1   
    47    21    33 1   
    48    21    55 1   
    49    21    56 1   
    50    21    57 1   
    51    22    58 1   
    52    22    59 1   
    53    22    60 1   
    54    23    61 1   
    55    23    62 1   
    56    23    63 1   
    57    24    25 ar  
    58    24    29 ar  
    59    24    64 1   
    60    25    26 ar  
    61    25    31 1   
    62    26    27 ar  
    63    26    75 1   
    64    27    28 ar  
    65    27    65 1   
    66    28    29 ar  
    67    29    66 1   
    68    30    69 1   
    69    30    75 1   
    70    31    32 1   
    71    31    70 1   
    72    31    71 1   
    73    32    72 1   
    74    33    73 1   
    75    33    74 1   
    76    67    75 1   
    77    68    75 1   
@<TRIPOS>SUBSTRUCTURE
     1 0VP         1 TEMP              0 ****  ****    0 ROOT
