@<TRIPOS>MOLECULE
molecule
   75    77     1     0     0
SMALL
bcc


@<TRIPOS>ATOM
      1 O1           0.0000     0.0000     0.0000 os         1 0VP      -0.323900
      2 O2          -8.7930     0.8290     3.9360 oh         1 0VP      -0.601800
      3 C9          -4.8270    -1.1450     2.2400 ca         1 0VP      -0.114000
      4 C10          1.4300     0.0000     0.0000 c3         1 0VP       0.188700
      5 C11         -4.7880     1.1200     3.0630 ca         1 0VP      -0.071300
      6 C12         -6.1650     1.1060     3.1510 ca         1 0VP      -0.100000
      7 C13         -6.2050    -1.1460     2.3260 ca         1 0VP      -0.131000
      8 C14         -0.6160     0.0000     1.2110 ca         1 0VP       0.138100
      9 C15         -4.0180     2.3500     3.4680 c3         1 0VP      -0.045100
     10 C16         -6.8720    -0.0240     2.7810 ca         1 0VP      -0.074300
     11 C17         -2.0000    -0.0050     1.2840 ca         1 0VP      -0.146000
     12 C18         -2.6280    -0.0050     2.5260 cp         1 0VP       0.000000
     13 C19         -1.8620     0.0000     3.6900 ca         1 0VP      -0.107300
     14 C20         -0.4840     0.0050     3.6090 ca         1 0VP      -0.089000
     15 C21          0.1400     0.0000     2.3750 ca         1 0VP      -0.222000
     16 C22         -3.7310     3.2010     2.2300 c3         1 0VP      -0.079400
     17 C23         -2.9500     4.4520     2.6410 c3         1 0VP      -0.092100
     18 C24         -8.3770    -0.0320     2.8740 c3         1 0VP       0.201100
     19 C25         -8.8630    -1.4560     3.1510 c3         1 0VP      -0.107900
     20 C26         -8.9720     0.4620     1.5540 c3         1 0VP      -0.107900
     21 C27         -2.8490    -1.4380     5.4520 c3         1 0VP      -0.086100
     22 C28        -10.4980     0.4760     1.6550 c3         1 0VP      -0.097100
     23 C29         -8.3090    -1.9320     4.4960 c3         1 0VP      -0.097100
     24 C1           2.6220    -1.1980    -3.3760 ca         1 0VP      -0.106000
     25 C2           2.8520    -0.0010    -4.0280 ca         1 0VP      -0.077300
     26 C3           2.6230     1.1960    -3.3770 ca         1 0VP      -0.093300
     27 C4           2.1620     1.1960    -2.0730 ca         1 0VP      -0.076000
     28 C5           1.9310    -0.0010    -1.4210 ca         1 0VP      -0.099300
     29 C6           2.1560    -1.1970    -2.0750 ca         1 0VP      -0.106000
     30 O49          2.5660     3.5870    -3.2110 oh         1 0VP      -0.607800
     31 C52          3.3550    -0.0010    -5.4490 c3         1 0VP       0.185700
     32 O53          3.5130    -1.3490    -5.8980 oh         1 0VP      -0.607800
     33 C8          -2.5370     0.0010     5.0370 c3         1 0VP      -0.043100
     34 C7          -4.1100    -0.0100     2.6110 cp         1 0VP      -0.035000
     35 H1          -9.6260     0.5380     4.2690 ho         1 0VP       0.406000
     36 H2          -4.3050    -2.0260     1.8850 ha         1 0VP       0.136000
     37 H3           1.7910     0.8850     0.5100 h1         1 0VP       0.041200
     38 H4           1.7910    -0.8840     0.5110 h1         1 0VP       0.041200
     39 H5          -6.6930     1.9820     3.5070 ha         1 0VP       0.150000
     40 H6          -6.7640    -2.0280     2.0370 ha         1 0VP       0.132000
     41 H7          -3.0840     2.0560     3.9290 hc         1 0VP       0.054700
     42 H8          -4.6040     2.9270     4.1740 hc         1 0VP       0.054700
     43 H9          -2.5920    -0.0090     0.3760 ha         1 0VP       0.150000
     44 H10          0.1110     0.0080     4.5140 ha         1 0VP       0.131000
     45 H11          1.2220     0.0040     2.3160 ha         1 0VP       0.133000
     46 H12         -4.6660     3.4950     1.7680 hc         1 0VP       0.046700
     47 H13         -3.1450     2.6250     1.5240 hc         1 0VP       0.046700
     48 H14         -3.5750     5.0800     3.2640 hc         1 0VP       0.032367
     49 H15         -2.0650     4.1600     3.1940 hc         1 0VP       0.032367
     50 H16         -2.6560     5.0010     1.7540 hc         1 0VP       0.032367
     51 H17         -8.5170    -2.1150     2.3640 hc         1 0VP       0.051700
     52 H18         -9.9460    -1.4680     3.1820 hc         1 0VP       0.051700
     53 H19         -8.6140     1.4640     1.3500 hc         1 0VP       0.051700
     54 H20         -8.6690    -0.1990     0.7510 hc         1 0VP       0.051700
     55 H21         -2.0830    -1.7920     6.1320 hc         1 0VP       0.035033
     56 H22         -3.8120    -1.4710     5.9460 hc         1 0VP       0.035033
     57 H23         -2.8720    -2.0700     4.5730 hc         1 0VP       0.035033
     58 H24        -10.7950     0.9630     2.5750 hc         1 0VP       0.037867
     59 H25        -10.9110     1.0160     0.8110 hc         1 0VP       0.037867
     60 H26        -10.8690    -0.5420     1.6490 hc         1 0VP       0.037867
     61 H27         -7.7440    -1.1310     4.9570 hc         1 0VP       0.037867
     62 H28         -7.6620    -2.7860     4.3380 hc         1 0VP       0.037867
     63 H29         -9.1290    -2.2150     5.1440 hc         1 0VP       0.037867
     64 H30          2.8000    -2.1360    -3.8880 ha         1 0VP       0.155000
     65 H31          1.9820     2.1340    -1.5620 ha         1 0VP       0.157000
     66 H32          1.9760    -2.1360    -1.5640 ha         1 0VP       0.135000
     67 H33          3.9160     2.5580    -4.3800 h1         1 0VP       0.029700
     68 H34          2.2480     2.5590    -4.9680 h1         1 0VP       0.029700
     69 H35          2.7860     4.4020    -3.6310 ho         1 0VP       0.405000
     70 H36          4.3100     0.5090    -5.4940 h1         1 0VP       0.030200
     71 H37          2.6420     0.5110    -6.0840 h1         1 0VP       0.030200
     72 H38          3.8480    -1.3490    -6.7800 ho         1 0VP       0.405000
     73 H39         -3.4590     0.5680     4.9790 hc         1 0VP       0.052200
     74 H40         -1.8800     0.4540     5.7700 hc         1 0VP       0.052200
     75 C48          2.8750     2.5010    -4.0870 c3         1 0VP       0.187700
@<TRIPOS>BOND
     1    22    20 1   
     2    23    19 1   
     3    20    18 1   
     4    19    18 1   
     5    18    10 1   
     6    18     2 1   
     7     7    10 ar  
     8     7     3 ar  
     9    10     6 ar  
    10     3    34 ar  
    11     6     5 ar  
    12    34     5 ar  
    13    34    12 1   
    14     5     9 1   
    15    11    12 ar  
    16    11     8 ar  
    17    12    13 ar  
    18    21    33 1   
    19     1     8 1   
    20     1     4 1   
    21    29    24 ar  
    22    29    28 ar  
    23     8    15 ar  
    24    24    25 ar  
    25     9    16 1   
    26    13    33 1   
    27    13    14 ar  
    28    28    27 ar  
    29    28     4 1   
    30    32    31 1   
    31    25    31 1   
    32    25    26 ar  
    33    27    26 ar  
    34    15    14 ar  
    35    26    75 1   
    36    16    17 1   
    37    75    30 1   
    38     2    35 1   
    39     3    36 1   
    40     4    37 1   
    41     4    38 1   
    42     6    39 1   
    43     7    40 1   
    44     9    41 1   
    45     9    42 1   
    46    11    43 1   
    47    14    44 1   
    48    15    45 1   
    49    16    46 1   
    50    16    47 1   
    51    17    48 1   
    52    17    49 1   
    53    17    50 1   
    54    19    51 1   
    55    19    52 1   
    56    20    53 1   
    57    20    54 1   
    58    21    55 1   
    59    21    56 1   
    60    21    57 1   
    61    22    58 1   
    62    22    59 1   
    63    22    60 1   
    64    23    61 1   
    65    23    62 1   
    66    23    63 1   
    67    24    64 1   
    68    27    65 1   
    69    29    66 1   
    70    75    67 1   
    71    75    68 1   
    72    30    69 1   
    73    31    70 1   
    74    31    71 1   
    75    32    72 1   
    76    33    73 1   
    77    33    74 1   
@<TRIPOS>SUBSTRUCTURE
     1 0VP         1 TEMP              0 ****  ****    0 ROOT
