@<TRIPOS>MOLECULE
0VP
   75    77     1     0     0
SMALL
bcc


@<TRIPOS>ATOM
      1 O1           0.0000     0.0000     0.0000 os         1 0VP      -0.299900
      2 O2          -8.7930     0.8290     3.9360 oh         1 0VP      -0.588800
      3 C9          -4.8270    -1.1450     2.2400 ca         1 0VP      -0.090000
      4 C10          1.4300     0.0000     0.0000 c3         1 0VP       0.263700
      5 C11         -4.7880     1.1200     3.0630 ca         1 0VP      -0.076300
      6 C12         -6.1650     1.1060     3.1510 ca         1 0VP      -0.073000
      7 C13         -6.2050    -1.1460     2.3260 ca         1 0VP      -0.112000
      8 C14         -0.6160     0.0000     1.2110 ca         1 0VP       0.149100
      9 C15         -4.0180     2.3500     3.4680 c3         1 0VP       0.002900
     10 C16         -6.8720    -0.0240     2.7810 ca         1 0VP      -0.091300
     11 C17         -2.0000    -0.0050     1.2840 ca         1 0VP      -0.134000
     12 C18         -2.6280    -0.0050     2.5260 cp         1 0VP       0.014000
     13 C19         -1.8620     0.0000     3.6900 ca         1 0VP      -0.119300
     14 C20         -0.4840     0.0050     3.6090 ca         1 0VP      -0.054000
     15 C21          0.1400     0.0000     2.3750 ca         1 0VP      -0.215000
     16 C22         -3.7310     3.2010     2.2300 c3         1 0VP      -0.028400
     17 C23         -2.9500     4.4520     2.6410 c3         1 0VP       0.005900
     18 C24         -8.3770    -0.0320     2.8740 c3         1 0VP       0.230100
     19 C25         -8.8630    -1.4560     3.1510 c3         1 0VP      -0.066400
     20 C26         -8.9720     0.4620     1.5540 c3         1 0VP      -0.066400
     21 C27         -2.8490    -1.4380     5.4520 c3         1 0VP       0.005900
     22 C28        -10.4980     0.4760     1.6550 c3         1 0VP      -0.005600
     23 C29         -8.3090    -1.9320     4.4960 c3         1 0VP      -0.005600
     24 C1           2.6220    -1.1980    -3.3760 ca         1 0VP      -0.083000
     25 C2           2.8520    -0.0010    -4.0280 ca         1 0VP      -0.095300
     26 C3           2.6230     1.1960    -3.3770 ca         1 0VP      -0.109300
     27 C4           2.1620     1.1960    -2.0730 ca         1 0VP      -0.052000
     28 C5           1.9310    -0.0010    -1.4210 ca         1 0VP      -0.116300
     29 C6           2.1560    -1.1970    -2.0750 ca         1 0VP      -0.078000
     30 O49          2.5660     3.5870    -3.2110 oh         1 0VP      -0.590800
     31 C52          3.3550    -0.0010    -5.4490 c3         1 0VP       0.281700
     32 O53          3.5130    -1.3490    -5.8980 oh         1 0VP      -0.590800
     33 C8          -2.5370     0.0010     5.0370 c3         1 0VP       0.008900
     34 C7          -4.1100    -0.0100     2.6110 cp         1 0VP      -0.030000
     35 H1          -9.6220     0.5330     4.2740 ho         1 0VP       0.398000
     36 H2          -4.3050    -2.0260     1.8850 ha         1 0VP       0.109000
     37 H3           1.7910     0.8850     0.5100 h1         1 0VP       0.004700
     38 H4           1.7910    -0.8840     0.5110 h1         1 0VP       0.004700
     39 H5          -6.6930     1.9820     3.5070 ha         1 0VP       0.125000
     40 H6          -6.7640    -2.0280     2.0370 ha         1 0VP       0.114000
     41 H7          -4.6040     2.9270     4.1740 hc         1 0VP       0.031200
     42 H8          -3.0840     2.0560     3.9290 hc         1 0VP       0.031200
     43 H9          -2.5920    -0.0090     0.3760 ha         1 0VP       0.124000
     44 H10          0.1110     0.0080     4.5140 ha         1 0VP       0.104000
     45 H11          1.2220     0.0040     2.3160 ha         1 0VP       0.120000
     46 H12         -3.1450     2.6250     1.5240 hc         1 0VP       0.018700
     47 H13         -4.6660     3.4950     1.7680 hc         1 0VP       0.018700
     48 H14         -3.5370     5.0300     3.3440 hc         1 0VP       0.000033
     49 H15         -2.7420     5.0530     1.7630 hc         1 0VP       0.000033
     50 H16         -2.0160     4.1580     3.1060 hc         1 0VP       0.000033
     51 H17         -8.5170    -2.1150     2.3640 hc         1 0VP       0.027200
     52 H18         -9.9460    -1.4680     3.1820 hc         1 0VP       0.027200
     53 H19         -8.6140     1.4640     1.3500 hc         1 0VP       0.027200
     54 H20         -8.6690    -0.1990     0.7510 hc         1 0VP       0.027200
     55 H21         -3.8110    -1.4700     5.9480 hc         1 0VP       0.003367
     56 H22         -2.0820    -1.7920     6.1300 hc         1 0VP       0.003367
     57 H23         -2.8730    -2.0700     4.5730 hc         1 0VP       0.003367
     58 H24        -10.7950     0.9640     2.5750 hc         1 0VP       0.007200
     59 H25        -10.9110     1.0150     0.8100 hc         1 0VP       0.007200
     60 H26        -10.8690    -0.5420     1.6500 hc         1 0VP       0.007200
     61 H27         -7.6620    -2.7860     4.3370 hc         1 0VP       0.007200
     62 H28         -9.1290    -2.2150     5.1440 hc         1 0VP       0.007200
     63 H29         -7.7440    -1.1310     4.9570 hc         1 0VP       0.007200
     64 H30          2.8000    -2.1360    -3.8880 ha         1 0VP       0.126000
     65 H31          1.9820     2.1340    -1.5620 ha         1 0VP       0.129000
     66 H32          1.9760    -2.1360    -1.5640 ha         1 0VP       0.106000
     67 H33          3.9160     2.5580    -4.3800 h1         1 0VP      -0.008300
     68 H34          2.2480     2.5590    -4.9680 h1         1 0VP      -0.008300
     69 H35          2.7840     4.4020    -3.6320 ho         1 0VP       0.391000
     70 H36          4.3100     0.5090    -5.4940 h1         1 0VP      -0.007800
     71 H37          2.6420     0.5110    -6.0840 h1         1 0VP      -0.007800
     72 H38          3.8610    -1.3500    -6.7750 ho         1 0VP       0.391000
     73 H39         -3.4590     0.5680     4.9790 hc         1 0VP       0.027200
     74 H40         -1.8800     0.4540     5.7700 hc         1 0VP       0.027200
     75 C48          2.8750     2.5010    -4.0870 c3         1 0VP       0.283700
@<TRIPOS>BOND
     1     1     4 1   
     2     1     8 1   
     3     2    18 1   
     4     2    35 1   
     5     3     7 ar  
     6     3    34 ar  
     7     3    36 1   
     8     4    28 1   
     9     4    37 1   
    10     4    38 1   
    11     5     6 ar  
    12     5     9 1   
    13     5    34 ar  
    14     6    10 ar  
    15     6    39 1   
    16     7    10 ar  
    17     7    40 1   
    18     8    11 ar  
    19     8    15 ar  
    20     9    16 1   
    21     9    41 1   
    22     9    42 1   
    23    10    18 1   
    24    11    12 ar  
    25    11    43 1   
    26    12    13 ar  
    27    12    34 1   
    28    13    14 ar  
    29    13    33 1   
    30    14    15 ar  
    31    14    44 1   
    32    15    45 1   
    33    16    17 1   
    34    16    46 1   
    35    16    47 1   
    36    17    48 1   
    37    17    49 1   
    38    17    50 1   
    39    18    19 1   
    40    18    20 1   
    41    19    23 1   
    42    19    51 1   
    43    19    52 1   
    44    20    22 1   
    45    20    53 1   
    46    20    54 1   
    47    21    33 1   
    48    21    55 1   
    49    21    56 1   
    50    21    57 1   
    51    22    58 1   
    52    22    59 1   
    53    22    60 1   
    54    23    61 1   
    55    23    62 1   
    56    23    63 1   
    57    24    25 ar  
    58    24    29 ar  
    59    24    64 1   
    60    25    26 ar  
    61    25    31 1   
    62    26    27 ar  
    63    26    75 1   
    64    27    28 ar  
    65    27    65 1   
    66    28    29 ar  
    67    29    66 1   
    68    30    69 1   
    69    30    75 1   
    70    31    32 1   
    71    31    70 1   
    72    31    71 1   
    73    32    72 1   
    74    33    73 1   
    75    33    74 1   
    76    67    75 1   
    77    68    75 1   
@<TRIPOS>SUBSTRUCTURE
     1 0VP         1 TEMP              0 ****  ****    0 ROOT
