@<TRIPOS>MOLECULE
molecule
   60    61     1     0     0
SMALL
bcc


@<TRIPOS>ATOM
      1 C10          0.0000     0.0000     0.0000 c3         1 0VQ      -0.031100
      2 C1           3.7760     0.0000     0.0000 ca         1 0VQ      -0.099000
      3 C2           4.0510     0.0000     1.3550 ca         1 0VQ      -0.091300
      4 C3           3.0160    -0.0020     2.2710 ca         1 0VQ      -0.086300
      5 C4           1.7050    -0.0040     1.8330 ca         1 0VQ      -0.098000
      6 C6           2.4650     0.0040    -0.4380 ca         1 0VQ      -0.129000
      7 C5           1.4290    -0.0040     0.4780 ca         1 0VQ      -0.087300
      8 C26         -5.3760    -1.4320     0.7890 ce         1 0VQ       0.118600
      9 C27         -6.3120    -2.6110     0.8630 c3         1 0VQ      -0.125200
     10 C28         -5.7090    -3.6850     1.7690 c3         1 0VQ      -0.083100
     11 C34         -5.5530    -0.3810     1.6120 ce         1 0VQ      -0.423000
     12 C35         -6.6540    -0.3830     2.5780 ce         1 0VQ      -0.114000
     13 C37         -6.8290     0.6570     3.3910 c2         1 0VQ      -0.179200
     14 C38         -7.9620     0.6550     4.3860 c3         1 0VQ       0.099000
     15 O39         -8.7010    -0.5620     4.2620 oh         1 0VQ      -0.560800
     16 C40         -7.3970     0.7670     5.8020 c3         1 0VQ       0.596900
     17 F41         -8.4500     0.7650     6.7250 f          1 0VQ      -0.208633
     18 F42         -6.5530    -0.3200     6.0560 f          1 0VQ      -0.208633
     19 F43         -6.6740     1.9570     5.9230 f          1 0VQ      -0.208633
     20 C44         -8.8860     1.8430     4.1090 c3         1 0VQ       0.596900
     21 F45         -8.1620     3.0340     4.2290 f          1 0VQ      -0.208633
     22 F46         -9.4020     1.7400     2.8120 f          1 0VQ      -0.208633
     23 F47         -9.9370     1.8410     5.0310 f          1 0VQ      -0.208633
     24 C14         -1.9130    -1.4370    -0.6520 ca         1 0VQ      -0.084300
     25 C17         -2.9440    -1.4380     0.2630 ca         1 0VQ      -0.090000
     26 C18         -4.2690    -1.4300    -0.1820 ca         1 0VQ      -0.062800
     27 C19         -4.5370    -1.4180    -1.5540 ca         1 0VQ      -0.110000
     28 C20         -3.4960    -1.4160    -2.4570 ca         1 0VQ      -0.127000
     29 C21         -2.1870    -1.4260    -2.0080 ca         1 0VQ      -0.117000
     30 C11         -0.4830    -1.4410    -0.1740 c3         1 0VQ      -0.031100
     31 C48          3.3160    -0.0030     3.7480 c3         1 0VQ       0.187700
     32 O49          2.0910    -0.0050     4.4830 oh         1 0VQ      -0.608800
     33 C52          5.4800     0.0020     1.8340 c3         1 0VQ       0.187700
     34 O53          6.3590     0.0040     0.7070 oh         1 0VQ      -0.608800
     35 H1          -0.0620     0.5190    -0.9490 hc         1 0VQ       0.056200
     36 H2          -0.6230     0.5040     0.7290 hc         1 0VQ       0.056200
     37 H3           4.5870     0.0040    -0.7180 ha         1 0VQ       0.153000
     38 H4           0.8940    -0.0050     2.5500 ha         1 0VQ       0.154000
     39 H5           2.2480     0.0040    -1.4990 ha         1 0VQ       0.130000
     40 H6          -7.2650    -2.2910     1.2660 hc         1 0VQ       0.063200
     41 H7          -6.4590    -3.0170    -0.1310 hc         1 0VQ       0.063200
     42 H8          -5.1080    -4.3630     1.1740 hc         1 0VQ       0.042033
     43 H9          -5.0860    -3.2150     2.5210 hc         1 0VQ       0.042033
     44 H10         -6.5050    -4.2370     2.2530 hc         1 0VQ       0.042033
     45 H11         -5.5450    -0.9270     2.5470 ha         1 0VQ       0.302000
     46 H12         -7.3260    -1.2310     2.6300 ha         1 0VQ       0.129000
     47 H13         -6.1570     1.5050     3.3390 ha         1 0VQ       0.186000
     48 H14         -9.4360    -0.5450     4.8520 ho         1 0VQ       0.430000
     49 H15         -2.7280    -1.4470     1.3250 ha         1 0VQ       0.138000
     50 H16         -5.5620    -1.4100    -1.9070 ha         1 0VQ       0.133000
     51 H17         -3.7020    -1.4070    -3.5200 ha         1 0VQ       0.133000
     52 H18         -1.3720    -1.4250    -2.7230 ha         1 0VQ       0.132000
     53 H19          0.1390    -1.9450    -0.9040 hc         1 0VQ       0.052700
     54 H20         -0.4210    -1.9610     0.7740 hc         1 0VQ       0.052700
     55 H21          3.8870     0.8830     4.0010 h1         1 0VQ       0.028700
     56 H22          3.8900    -0.8860     3.9990 h1         1 0VQ       0.028700
     57 H23          2.2780     0.0590     5.4050 ho         1 0VQ       0.404000
     58 H24          5.6590     0.8870     2.4330 h1         1 0VQ       0.028700
     59 H25          5.6620    -0.8820     2.4320 h1         1 0VQ       0.028700
     60 H26          7.2530     0.0360     1.0060 ho         1 0VQ       0.404000
@<TRIPOS>BOND
     1    21    20 1   
     2    22    20 1   
     3    17    16 1   
     4    20    23 1   
     5    20    14 1   
     6    19    16 1   
     7    16    14 1   
     8    16    18 1   
     9    14    15 1   
    10    14    13 1   
    11    13    12 2   
    12    12    11 1   
    13    11     8 2   
    14     1     7 1   
    15     1    30 1   
    16     6     7 ar  
    17     6     2 ar  
    18     8    26 1   
    19     8     9 1   
    20     7     5 ar  
    21     2     3 ar  
    22    25    26 ar  
    23    25    24 ar  
    24    34    33 1   
    25     3    33 1   
    26     3     4 ar  
    27     5     4 ar  
    28    30    24 1   
    29     4    31 1   
    30    26    27 ar  
    31    10     9 1   
    32    24    29 ar  
    33    31    32 1   
    34    27    28 ar  
    35    29    28 ar  
    36     1    35 1   
    37     1    36 1   
    38     2    37 1   
    39     5    38 1   
    40     6    39 1   
    41     9    40 1   
    42     9    41 1   
    43    10    42 1   
    44    10    43 1   
    45    10    44 1   
    46    11    45 1   
    47    12    46 1   
    48    13    47 1   
    49    15    48 1   
    50    25    49 1   
    51    27    50 1   
    52    28    51 1   
    53    29    52 1   
    54    30    53 1   
    55    30    54 1   
    56    31    55 1   
    57    31    56 1   
    58    32    57 1   
    59    33    58 1   
    60    33    59 1   
    61    34    60 1   
@<TRIPOS>SUBSTRUCTURE
     1 0VQ         1 TEMP              0 ****  ****    0 ROOT
