@<TRIPOS>MOLECULE
0VQ
   60    61     1     0     0
SMALL
bcc


@<TRIPOS>ATOM
      1 C10          0.4200     0.3070    -1.1730 c3         1 0VQ      -0.032100
      2 C1           4.1840     0.3520    -0.7450 ca         1 0VQ      -0.106000
      3 C2           4.3170     0.2120     0.6400 ca         1 0VQ      -0.058300
      4 C3           3.1650     0.1050     1.4370 ca         1 0VQ      -0.088300
      5 C4           1.9040     0.1270     0.8330 ca         1 0VQ      -0.124000
      6 C6           2.9250     0.3830    -1.3370 ca         1 0VQ      -0.119000
      7 C5           1.7730     0.2660    -0.5520 ca         1 0VQ      -0.081300
      8 C26         -0.1980    -2.3880    -5.9160 ce         1 0VQ      -0.012400
      9 C27         -1.0470    -3.4620    -6.5090 c3         1 0VQ      -0.048200
     10 C28         -1.3750    -3.2930    -7.9700 c3         1 0VQ      -0.096100
     11 C34          0.1690    -1.2810    -6.5940 cf         1 0VQ      -0.163000
     12 C35          1.0040    -0.2420    -6.0390 cf         1 0VQ      -0.016000
     13 C37          1.2630     0.9690    -6.5530 c2         1 0VQ      -0.240200
     14 C38          0.7610     1.6000    -7.8010 c3         1 0VQ       0.164000
     15 O39         -0.2540     0.8590    -8.4230 oh         1 0VQ      -0.547800
     16 C40          1.9640     1.7700    -8.8320 c3         1 0VQ       0.596400
     17 F41          1.5510     2.3060   -10.0260 f          1 0VQ      -0.222467
     18 F42          2.5570     0.5850    -9.1710 f          1 0VQ      -0.222467
     19 F43          2.9770     2.5750    -8.3950 f          1 0VQ      -0.222467
     20 C44          0.1780     3.0430    -7.4520 c3         1 0VQ       0.596400
     21 F45         -0.4160     3.6380    -8.5370 f          1 0VQ      -0.222467
     22 F46          1.1080     3.9380    -7.0030 f          1 0VQ      -0.222467
     23 F47         -0.7950     3.0160    -6.4920 f          1 0VQ      -0.222467
     24 C14          0.1440    -1.9770    -2.1780 ca         1 0VQ      -0.076300
     25 C17         -0.2030    -1.7420    -3.5130 ca         1 0VQ      -0.121000
     26 C18          0.1880    -2.6320    -4.5200 ca         1 0VQ      -0.075800
     27 C19          0.9390    -3.7660    -4.1820 ca         1 0VQ      -0.118000
     28 C20          1.2900    -3.9990    -2.8540 ca         1 0VQ      -0.128000
     29 C21          0.8940    -3.1130    -1.8540 ca         1 0VQ      -0.114000
     30 C11         -0.3010    -1.0320    -1.1170 c3         1 0VQ      -0.034100
     31 C48          3.2410     0.0160     2.9280 c3         1 0VQ       0.176700
     32 O49          4.1520    -1.0120     3.2950 oh         1 0VQ      -0.601800
     33 C52          5.6650     0.1510     1.2800 c3         1 0VQ       0.175700
     34 O53          6.6490     0.6040     0.3590 oh         1 0VQ      -0.605800
     35 H1          -0.2020     1.0680    -0.6270 hc         1 0VQ       0.050700
     36 H2           0.4960     0.6430    -2.2420 hc         1 0VQ       0.050700
     37 H3           5.0910     0.4450    -1.3640 ha         1 0VQ       0.155000
     38 H4           0.9990     0.0370     1.4540 ha         1 0VQ       0.128000
     39 H5           2.8370     0.4950    -2.4280 ha         1 0VQ       0.131000
     40 H6          -0.5230    -4.4470    -6.3600 hc         1 0VQ       0.057200
     41 H7          -2.0040    -3.5110    -5.9180 hc         1 0VQ       0.057200
     42 H8          -0.4440    -3.2370    -8.5850 hc         1 0VQ       0.039700
     43 H9          -1.9700    -2.3640    -8.1430 hc         1 0VQ       0.039700
     44 H10         -1.9770    -4.1660    -8.3230 hc         1 0VQ       0.039700
     45 H11         -0.1610    -1.1400    -7.6400 ha         1 0VQ       0.157000
     46 H12          1.4890    -0.4940    -5.0720 ha         1 0VQ       0.141000
     47 H13          1.9480     1.6520    -6.0160 ha         1 0VQ       0.152000
     48 H14         -0.5250     1.3450    -9.2200 ho         1 0VQ       0.434000
     49 H15         -0.7950    -0.8510    -3.7740 ha         1 0VQ       0.138000
     50 H16          1.2570    -4.4680    -4.9670 ha         1 0VQ       0.135000
     51 H17          1.8850    -4.8870    -2.5940 ha         1 0VQ       0.135000
     52 H18          1.1770    -3.3040    -0.8070 ha         1 0VQ       0.138000
     53 H19         -1.4030    -0.8470    -1.2410 hc         1 0VQ       0.051200
     54 H20         -0.1510    -1.4920    -0.1030 hc         1 0VQ       0.051200
     55 H21          3.6080     0.9960     3.3440 h1         1 0VQ       0.030200
     56 H22          2.2270    -0.2020     3.3620 h1         1 0VQ       0.030200
     57 H23          4.0360    -1.1500     4.2430 ho         1 0VQ       0.401000
     58 H24          5.8800    -0.9100     1.5870 h1         1 0VQ       0.043200
     59 H25          5.6840     0.8000     2.1990 h1         1 0VQ       0.043200
     60 H26          7.5010     0.4480     0.7810 ho         1 0VQ       0.402000
@<TRIPOS>BOND
     1     1     7 1   
     2     1    30 1   
     3     1    35 1   
     4     1    36 1   
     5     2     3 ar  
     6     2     6 ar  
     7     2    37 1   
     8     3     4 ar  
     9     3    33 1   
    10     4     5 ar  
    11     4    31 1   
    12     5     7 ar  
    13     5    38 1   
    14     6     7 ar  
    15     6    39 1   
    16     8     9 1   
    17     8    11 2   
    18     8    26 1   
    19     9    10 1   
    20     9    40 1   
    21     9    41 1   
    22    10    42 1   
    23    10    43 1   
    24    10    44 1   
    25    11    12 1   
    26    11    45 1   
    27    12    13 2   
    28    12    46 1   
    29    13    14 1   
    30    13    47 1   
    31    14    15 1   
    32    14    16 1   
    33    14    20 1   
    34    15    48 1   
    35    16    17 1   
    36    16    18 1   
    37    16    19 1   
    38    20    21 1   
    39    20    22 1   
    40    20    23 1   
    41    24    25 ar  
    42    24    29 ar  
    43    24    30 1   
    44    25    26 ar  
    45    25    49 1   
    46    26    27 ar  
    47    27    28 ar  
    48    27    50 1   
    49    28    29 ar  
    50    28    51 1   
    51    29    52 1   
    52    30    53 1   
    53    30    54 1   
    54    31    32 1   
    55    31    55 1   
    56    31    56 1   
    57    32    57 1   
    58    33    34 1   
    59    33    58 1   
    60    33    59 1   
    61    34    60 1   
@<TRIPOS>SUBSTRUCTURE
     1 0VQ         1 TEMP              0 ****  ****    0 ROOT
