@<TRIPOS>MOLECULE
0VQ
   60    63     1     0     0
SMALL
bcc


@<TRIPOS>ATOM
      1 C10          0.0000     0.0000     0.0000 c3         1 0VQ      -0.052000
      2 C1           3.7760     0.0000     0.0000 ca         1 0VQ      -0.076000
      3 C2           4.0510     0.0000     1.3550 ca         1 0VQ      -0.101000
      4 C3           3.0160    -0.0020     2.2710 ca         1 0VQ      -0.094000
      5 C4           1.7050    -0.0040     1.8330 ca         1 0VQ      -0.075000
      6 C6           2.4650     0.0040    -0.4380 ca         1 0VQ      -0.101000
      7 C5           1.4290    -0.0040     0.4780 ca         1 0VQ      -0.089000
      8 C26         -5.3760    -1.4320     0.7890 c2         1 0VQ      -0.165000
      9 C27         -6.3120    -2.6110     0.8630 c3         1 0VQ      -0.039000
     10 C28         -5.7090    -3.6850     1.7690 c3         1 0VQ      -0.112000
     11 C34         -5.5530    -0.3810     1.6120 c3         1 0VQ      -0.079000
     12 C35         -6.6540    -0.3830     2.5780 c2         1 0VQ       0.052000
     13 C37         -6.8290     0.6570     3.3910 c2         1 0VQ      -0.126000
     14 C38         -7.9620     0.6550     4.3860 DU         1 0VQ       0.095000
     15 O39         -8.7010    -0.5620     4.2620 oh         1 0VQ      -0.266000
     16 C40         -7.3970     0.7670     5.8020 c3         1 0VQ       0.318500
     17 F41         -8.4500     0.7650     6.7250 f          1 0VQ      -0.119833
     18 F42         -6.5530    -0.3200     6.0560 f          1 0VQ      -0.119833
     19 F43         -6.6740     1.9570     5.9230 f          1 0VQ      -0.119833
     20 C44         -8.8860     1.8430     4.1090 c3         1 0VQ       0.318500
     21 F45         -8.1620     3.0340     4.2290 f          1 0VQ      -0.119833
     22 F46         -9.4020     1.7400     2.8120 f          1 0VQ      -0.119833
     23 F47         -9.9370     1.8410     5.0310 f          1 0VQ      -0.119833
     24 C14         -1.9130    -1.4370    -0.6520 ca         1 0VQ      -0.081000
     25 C17         -2.9440    -1.4380     0.2630 ca         1 0VQ      -0.089000
     26 C18         -4.2690    -1.4300    -0.1820 ca         1 0VQ      -0.024000
     27 C19         -4.5370    -1.4180    -1.5540 ca         1 0VQ      -0.099000
     28 C20         -3.4960    -1.4160    -2.4570 ca         1 0VQ      -0.098000
     29 C21         -2.1870    -1.4260    -2.0080 ca         1 0VQ      -0.098000
     30 C11         -0.4830    -1.4410    -0.1740 c3         1 0VQ      -0.055000
     31 C48          3.3160    -0.0030     3.7480 c3         1 0VQ       0.125000
     32 O49          2.0910    -0.0050     4.4830 oh         1 0VQ      -0.318000
     33 C52          5.4800     0.0020     1.8340 c3         1 0VQ       0.126000
     34 O53          6.3590     0.0040     0.7070 oh         1 0VQ      -0.319000
     35 H1          -0.6230     0.5040     0.7290 hc         1 0VQ       0.059500
     36 H2          -0.0620     0.5190    -0.9490 hc         1 0VQ       0.059500
     37 H3           4.5870     0.0040    -0.7180 ha         1 0VQ       0.124000
     38 H4           0.8940    -0.0050     2.5500 ha         1 0VQ       0.128000
     39 H5           2.2480     0.0040    -1.4990 ha         1 0VQ       0.105000
     40 H6          -7.2650    -2.2910     1.2670 hc         1 0VQ       0.056000
     41 H7          -6.4590    -3.0170    -0.1310 hc         1 0VQ       0.056000
     42 H8          -5.0860    -3.2150     2.5210 hc         1 0VQ       0.045000
     43 H9          -5.1080    -4.3630     1.1750 hc         1 0VQ       0.045000
     44 H10         -6.5050    -4.2380     2.2530 hc         1 0VQ       0.045000
     45 H11         -4.8810     0.4670     1.5590 hc         1 0VQ       0.151000
     46 H12         -6.6630     0.1620     1.6410 DU         1 0VQ       0.092000
     47 H13         -7.8630     0.8650     3.1420 DU         1 0VQ      -0.002000
     48 H14         -9.1610    -0.7340     5.0660 ho         1 0VQ       0.221000
     49 H15         -2.7280    -1.4470     1.3250 ha         1 0VQ       0.114000
     50 H16         -5.5620    -1.4100    -1.9070 ha         1 0VQ       0.106000
     51 H17         -3.7020    -1.4070    -3.5200 ha         1 0VQ       0.103000
     52 H18         -1.3720    -1.4250    -2.7230 ha         1 0VQ       0.106000
     53 H19          0.1390    -1.9450    -0.9040 hc         1 0VQ       0.062000
     54 H20         -0.4210    -1.9610     0.7740 hc         1 0VQ       0.062000
     55 H21          3.8900    -0.8860     3.9990 h1         1 0VQ       0.031000
     56 H22          3.8870     0.8830     4.0010 h1         1 0VQ       0.031000
     57 H23          2.2790     0.0000     5.4070 ho         1 0VQ       0.189000
     58 H24          5.6620    -0.8820     2.4320 h1         1 0VQ       0.030000
     59 H25          5.6590     0.8870     2.4330 h1         1 0VQ       0.030000
     60 H26          7.2540     0.0070     1.0060 ho         1 0VQ       0.189000
@<TRIPOS>BOND
     1     1     7 1   
     2     1    30 1   
     3     1    35 1   
     4     1    36 1   
     5     2     3 1   
     6     2     6 1   
     7     2    37 1   
     8     3     4 1   
     9     3    33 1   
    10     4     5 1   
    11     4    31 1   
    12     5     7 1   
    13     5    38 1   
    14     6     7 1   
    15     6    39 1   
    16     8     9 1   
    17     8    11 1   
    18     8    26 1   
    19     9    10 1   
    20     9    40 1   
    21     9    41 1   
    22    10    42 1   
    23    10    43 1   
    24    10    44 1   
    25    11    12 1   
    26    11    45 1   
    27    11    46 1   
    28    12    13 1   
    29    12    46 1   
    30    13    14 1   
    31    13    47 1   
    32    14    15 1   
    33    14    16 1   
    34    14    20 1   
    35    14    47 1   
    36    15    48 1   
    37    16    17 1   
    38    16    18 1   
    39    16    19 1   
    40    20    21 1   
    41    20    22 1   
    42    20    23 1   
    43    24    25 1   
    44    24    29 1   
    45    24    30 1   
    46    25    26 1   
    47    25    49 1   
    48    26    27 1   
    49    27    28 1   
    50    27    50 1   
    51    28    29 1   
    52    28    51 1   
    53    29    52 1   
    54    30    53 1   
    55    30    54 1   
    56    31    32 1   
    57    31    55 1   
    58    31    56 1   
    59    32    57 1   
    60    33    34 1   
    61    33    58 1   
    62    33    59 1   
    63    34    60 1   
@<TRIPOS>SUBSTRUCTURE
     1 0VQ         1 TEMP              0 ****  ****    0 ROOT
