@<TRIPOS>MOLECULE
0VR
   38    38     1     0     0
SMALL
bcc


@<TRIPOS>ATOM
      1 P           -0.3070    -0.4530    -0.4040 p5         1 0VR       1.323900
      2 O1P          0.3290    -1.4430    -1.3390 o          1 0VR      -0.925167
      3 O2P          0.2030    -0.4240     1.0060 o          1 0VR      -0.925167
      4 O3P         -1.7960    -0.2680    -0.5940 o          1 0VR      -0.925167
      5 O5'          0.2370     1.0670    -1.0540 os         1 0VR      -0.581200
      6 C5'          0.0330     1.2010    -2.4050 c3         1 0VR       0.188400
      7 C4'         -1.0450     2.2600    -2.7320 c3         1 0VR       0.092100
      8 O4'         -2.3460     1.7900    -2.4440 oh         1 0VR      -0.698800
      9 C3'         -0.8410     3.5930    -1.9770 c3         1 0VR       0.108100
     10 O3'          0.5160     3.8440    -1.6510 oh         1 0VR      -0.649800
     11 C2'         -1.3120     4.7980    -2.8210 c3         1 0VR       0.138100
     12 O2'         -2.5450     4.5500    -3.4750 oh         1 0VR      -0.623800
     13 C1'         -1.4550     6.0320    -1.9040 c3         1 0VR       0.180800
     14 NH          -1.6000     7.2840    -2.6020 nu         1 0VR      -0.745600
     15 C1          -2.1500     9.6760    -2.5510 ca         1 0VR      -0.199600
     16 C2          -1.8150     8.4500    -1.8920 ca         1 0VR       0.226600
     17 C3          -1.6320     8.4890    -0.4800 ca         1 0VR      -0.253000
     18 C4          -1.7530     9.6750     0.2310 ca         1 0VR      -0.108000
     19 C5          -2.0620    10.8640    -0.4200 ca         1 0VR      -0.251000
     20 C6          -2.2540    10.8440    -1.8030 ca         1 0VR      -0.077000
     21 O71         -2.7650     8.7840    -4.7120 o          1 0VR      -0.850800
     22 O72         -2.3140    10.9510    -4.5630 o          1 0VR      -0.850800
     23 H3           0.9890     1.5440    -2.9010 h1         1 0VR       0.005200
     24 H4          -0.2860     0.2210    -2.8630 h1         1 0VR       0.005200
     25 H5          -1.0330     2.4640    -3.8400 h1         1 0VR       0.016700
     26 H6          -2.2640     1.1080    -1.7240 ho         1 0VR       0.500000
     27 H7          -1.4470     3.5460    -1.0260 h1         1 0VR       0.045700
     28 H8           0.8150     3.0730    -1.1370 ho         1 0VR       0.457000
     29 H9          -0.5690     5.0030    -3.6410 h1         1 0VR       0.065700
     30 H10         -2.9870     3.8240    -3.0110 ho         1 0VR       0.427000
     31 H11         -2.3330     5.8520    -1.2170 h1         1 0VR       0.034700
     32 H12         -0.5200     6.0780    -1.2720 h1         1 0VR       0.034700
     33 H13         -1.9940     7.2500    -3.5270 hn         1 0VR       0.473800
     34 H14         -1.3880     7.5690     0.0710 ha         1 0VR       0.122000
     35 H15         -1.6040     9.6660     1.3210 ha         1 0VR       0.086000
     36 H16         -2.1540    11.8020     0.1400 ha         1 0VR       0.085000
     37 H17         -2.4920    11.7760    -2.3420 ha         1 0VR       0.133000
     38 C7          -2.4180     9.7990    -4.0390 c          1 0VR       0.913200
@<TRIPOS>BOND
     1     1     2 1   
     2     1     3 1   
     3     1     4 1   
     4     1     5 1   
     5     5     6 1   
     6     6     7 1   
     7     6    23 1   
     8     6    24 1   
     9     7     8 1   
    10     7     9 1   
    11     7    25 1   
    12     8    26 1   
    13     9    10 1   
    14     9    11 1   
    15     9    27 1   
    16    10    28 1   
    17    11    12 1   
    18    11    13 1   
    19    11    29 1   
    20    12    30 1   
    21    13    14 1   
    22    13    31 1   
    23    13    32 1   
    24    14    16 1   
    25    14    33 1   
    26    15    16 ar  
    27    15    20 ar  
    28    15    38 1   
    29    16    17 ar  
    30    17    18 ar  
    31    17    34 1   
    32    18    19 ar  
    33    18    35 1   
    34    19    20 ar  
    35    19    36 1   
    36    20    37 1   
    37    21    38 1   
    38    22    38 1   
@<TRIPOS>SUBSTRUCTURE
     1 0VR         1 TEMP              0 ****  ****    0 ROOT
