@<TRIPOS>MOLECULE
0VR
   38    38     1     0     0
SMALL
bcc


@<TRIPOS>ATOM
      1 P            0.0000     0.0000     0.0000 p5         1 0VR       0.677900
      2 O1P          1.4810     0.0000     0.0000 o          1 0VR      -0.763500
      3 O2P         -0.5360     0.0000     1.5180 o          1 0VR      -0.763500
      4 O3P         -0.5360     1.3150    -0.7570 o          1 0VR      -0.763500
      5 O5'         -0.5370    -1.3140    -0.7580 os         1 0VR      -0.480200
      6 C5'         -0.1500    -1.6570    -2.0910 c3         1 0VR       0.258400
      7 C4'         -0.8390    -2.9590    -2.5040 c3         1 0VR       0.146100
      8 O4'         -2.2520    -2.7510    -2.5630 oh         1 0VR      -0.591800
      9 C3'         -0.3290    -3.3910    -3.8800 c3         1 0VR       0.168100
     10 O3'          1.0840    -3.5990    -3.8200 oh         1 0VR      -0.584800
     11 C2'         -1.0190    -4.6930    -4.2930 c3         1 0VR       0.168100
     12 O2'         -2.4320    -4.4850    -4.3520 oh         1 0VR      -0.562800
     13 C1'         -0.5090    -5.1270    -5.6690 c3         1 0VR       0.125800
     14 NH          -1.1700    -6.3720    -6.0640 nu         1 0VR      -0.446600
     15 C1          -1.4070    -8.2150    -7.6160 ca         1 0VR      -0.215600
     16 C2          -0.8660    -6.9620    -7.2840 ca         1 0VR       0.121600
     17 C3          -0.0260    -6.3160    -8.1820 ca         1 0VR      -0.254000
     18 C4           0.2730    -6.9040    -9.3940 ca         1 0VR      -0.070000
     19 C5          -0.2590    -8.1400    -9.7260 ca         1 0VR      -0.249000
     20 C6          -1.0940    -8.7970    -8.8480 ca         1 0VR      -0.018000
     21 O71         -2.7120   -10.1670    -6.9390 o          1 0VR      -0.896300
     22 O72         -2.6500    -8.3610    -5.6490 o          1 0VR      -0.896300
     23 H3           0.9250    -1.7890    -2.1310 h1         1 0VR      -0.022300
     24 H4          -0.4420    -0.8630    -2.7670 h1         1 0VR      -0.022300
     25 H5          -0.6180    -3.7310    -1.7770 h1         1 0VR      -0.002300
     26 H6          -2.6310    -2.9270    -1.7180 ho         1 0VR       0.389000
     27 H7          -0.5500    -2.6190    -4.6060 h1         1 0VR       0.011700
     28 H8           1.5150    -2.9980    -4.4050 ho         1 0VR       0.380000
     29 H9          -0.7980    -5.4650    -3.5660 h1         1 0VR       0.010700
     30 H10         -2.8720    -5.1800    -3.8920 ho         1 0VR       0.386000
     31 H11          0.5610    -5.2840    -5.6230 h1         1 0VR       0.010700
     32 H12         -0.7300    -4.3540    -6.3960 h1         1 0VR       0.010700
     33 H13         -1.8350    -6.8010    -5.4520 hn         1 0VR       0.377800
     34 H14          0.3940    -5.3500    -7.9310 ha         1 0VR       0.106000
     35 H15          0.9280    -6.3960   -10.0910 ha         1 0VR       0.065000
     36 H16         -0.0170    -8.5920   -10.6800 ha         1 0VR       0.073000
     37 H17         -1.5070    -9.7630    -9.1120 ha         1 0VR       0.111000
     38 C7          -2.2940    -8.9140    -6.6700 c          1 0VR       1.005200
@<TRIPOS>BOND
     1     1     2 1   
     2     1     3 1   
     3     1     4 1   
     4     1     5 1   
     5     5     6 1   
     6     6     7 1   
     7     6    23 1   
     8     6    24 1   
     9     7     8 1   
    10     7     9 1   
    11     7    25 1   
    12     8    26 1   
    13     9    10 1   
    14     9    11 1   
    15     9    27 1   
    16    10    28 1   
    17    11    12 1   
    18    11    13 1   
    19    11    29 1   
    20    12    30 1   
    21    13    14 1   
    22    13    31 1   
    23    13    32 1   
    24    14    16 1   
    25    14    33 1   
    26    15    16 ar  
    27    15    20 ar  
    28    15    38 1   
    29    16    17 ar  
    30    17    18 ar  
    31    17    34 1   
    32    18    19 ar  
    33    18    35 1   
    34    19    20 ar  
    35    19    36 1   
    36    20    37 1   
    37    21    38 1   
    38    22    38 1   
@<TRIPOS>SUBSTRUCTURE
     1 0VR         1 TEMP              0 ****  ****    0 ROOT
