@<TRIPOS>MOLECULE
0VS
   57    58     1     0     0
SMALL
bcc


@<TRIPOS>ATOM
      1 C13         -0.7000     0.4710    -0.3510 c3         1 0VS      -0.084400
      2 C15          1.5660     0.0960     0.6770 c          1 0VS       0.889600
      3 C20          3.1230     2.0140    -3.8780 c          1 0VS       0.647100
      4 C22          3.3630     2.4210    -6.2770 c3         1 0VS      -0.006000
      5 C02          4.8080     7.4790     0.3510 c          1 0VS       0.566900
      6 C03          4.9070     8.1190    -0.9740 ca         1 0VS      -0.126600
      7 C04          4.7670     7.3530    -2.1470 ca         1 0VS      -0.147600
      8 C05          4.5180     5.9040    -2.0710 c          1 0VS       0.629900
      9 C06          4.7380     5.2550    -0.7630 cc         1 0VS      -0.131600
     10 C08          4.6630     2.7490    -2.0410 c3         1 0VS      -0.093300
     11 C09          3.1990     2.6020    -2.4500 c3         1 0VS       0.060500
     12 N10          2.4470     1.7430    -1.4840 ny         1 0VS      -0.674800
     13 C11          0.9540     1.8940    -1.5770 c          1 0VS       0.565100
     14 C12          0.1300     0.6290    -1.6150 c3         1 0VS      -0.148400
     15 C14          0.0510    -0.3180     0.7270 c3         1 0VS      -0.041500
     16 N18         -0.4690    -0.0390     2.1010 nz         1 0VS      -0.824600
     17 O19          0.5100     3.0340    -1.6090 o          1 0VS      -0.435100
     18 C23          1.9370     2.2510    -6.7850 c          1 0VS       0.600100
     19 O24          1.3230     3.0610    -7.4730 o          1 0VS      -0.459000
     20 O25          1.2500     1.1200    -6.4720 oh         1 0VS      -0.576100
     21 C27          4.8730     5.9940     0.3690 cd         1 0VS      -0.073400
     22 C30          4.8520     7.9760    -3.3950 ca         1 0VS      -0.071000
     23 C31          5.0870     9.3510    -3.4790 ca         1 0VS      -0.111000
     24 C32          5.2250    10.1070    -2.3190 ca         1 0VS      -0.094000
     25 C33          5.1310     9.4940    -1.0650 ca         1 0VS      -0.076000
     26 S07          4.8740     3.5740    -0.5110 ss         1 0VS      -0.112700
     27 C28          5.1010     5.3440     1.6770 c3         1 0VS      -0.093900
     28 O17          1.8620     1.1800     1.2530 o          1 0VS      -0.779300
     29 O26          2.7990     0.8180    -4.0500 o          1 0VS      -0.631100
     30 O29          4.1360     5.2570    -3.0630 o          1 0VS      -0.611100
     31 O16          2.3260    -0.6130    -0.0190 o          1 0VS      -0.779300
     32 N21          3.4280     2.8570    -4.9090 ns         1 0VS      -0.525900
     33 O01          4.6870     8.1280     1.3950 o          1 0VS      -0.480100
     34 H1          -0.9950     1.4890     0.0250 hc         1 0VS       0.079700
     35 H2          -1.6420    -0.0780    -0.6190 hc         1 0VS       0.079700
     36 H3           3.9020     1.4340    -6.3860 h1         1 0VS       0.101200
     37 H4           3.8750     3.1920    -6.9220 h1         1 0VS       0.101200
     38 H8           5.2080     3.2660    -2.8740 h1         1 0VS       0.127200
     39 H9           5.1470     1.7450    -1.9000 h1         1 0VS       0.127200
     40 H10          2.7050     3.6280    -2.4420 hx         1 0VS       0.150700
     41 H11          2.7380     1.9950    -0.5080 hn         1 0VS       0.507800
     42 H12          0.7630    -0.2880    -1.7860 hc         1 0VS       0.127200
     43 H13         -0.5610     0.7350    -2.5010 hc         1 0VS       0.127200
     44 H14         -0.0370    -1.4240     0.5300 hx         1 0VS       0.122700
     45 H16         -0.1940    -0.8000     2.7270 hn         1 0VS       0.460800
     46 H17         -1.4840     0.0650     2.1050 hn         1 0VS       0.460800
     47 H21          4.7310     7.3750    -4.3110 ha         1 0VS       0.155000
     48 H22          5.1580     9.8330    -4.4670 ha         1 0VS       0.155000
     49 H23          5.4070    11.1920    -2.3820 ha         1 0VS       0.157000
     50 H24          5.2280    10.0890    -0.1410 ha         1 0VS       0.170000
     51 H183        -0.0210     0.8360     2.4290 hn         1 0VS       0.460800
     52 H102         2.7000     0.7440    -1.6290 hn         1 0VS       0.507800
     53 H5           4.9550     6.0670     2.5200 hc         1 0VS       0.080367
     54 H6           4.3970     4.4810     1.8180 hc         1 0VS       0.080367
     55 H7           6.1490     4.9480     1.7260 hc         1 0VS       0.080367
     56 H19          3.6090     3.8220    -4.7270 hn         1 0VS       0.363500
     57 H212         1.8100     0.5140    -5.9590 ho         1 0VS       0.448000
@<TRIPOS>BOND
     1     1    14 1   
     2     1    15 1   
     3     1    34 1   
     4     1    35 1   
     5     2    15 1   
     6     2    28 1   
     7     2    31 1   
     8     3    11 1   
     9     3    29 2   
    10     3    32 1   
    11     4    18 1   
    12     4    32 1   
    13     4    36 1   
    14     4    37 1   
    15     5     6 1   
    16     5    21 1   
    17     5    33 2   
    18     6     7 ar  
    19     6    25 ar  
    20     7     8 1   
    21     7    22 ar  
    22     8     9 1   
    23     8    30 2   
    24     9    21 2   
    25     9    26 1   
    26    10    11 1   
    27    10    26 1   
    28    10    38 1   
    29    10    39 1   
    30    11    12 1   
    31    11    40 1   
    32    12    13 1   
    33    12    41 1   
    34    12    52 1   
    35    13    14 1   
    36    13    17 2   
    37    14    42 1   
    38    14    43 1   
    39    15    16 1   
    40    15    44 1   
    41    16    45 1   
    42    16    46 1   
    43    16    51 1   
    44    18    19 2   
    45    18    20 1   
    46    20    57 1   
    47    21    27 1   
    48    22    23 ar  
    49    22    47 1   
    50    23    24 ar  
    51    23    48 1   
    52    24    25 ar  
    53    24    49 1   
    54    25    50 1   
    55    27    53 1   
    56    27    54 1   
    57    27    55 1   
    58    32    56 1   
@<TRIPOS>SUBSTRUCTURE
     1 0VS         1 TEMP              0 ****  ****    0 ROOT
