@<TRIPOS>MOLECULE
molecule
   55    56     1     0     0
SMALL
bcc


@<TRIPOS>ATOM
      1 C13          0.0000     0.0000     0.0000 c3         1 0VS      -0.073400
      2 C15         -2.0120     0.1230     1.4440 c          1 0VS       0.873600
      3 C20          3.8980    -1.4160    -3.5620 c          1 0VS       0.633100
      4 C22          4.3690    -3.0370    -5.3190 c3         1 0VS      -0.005000
      5 C02          8.4290     4.2010    -3.9650 c          1 0VS       0.572900
      6 C03          9.5780     3.5980    -3.2530 ca         1 0VS      -0.134600
      7 C04          9.3490     2.5910    -2.2970 ca         1 0VS      -0.130600
      8 C05          7.9600     2.1600    -2.0290 c          1 0VS       0.579900
      9 C06          6.8510     2.8060    -2.7770 cc         1 0VS      -0.048600
     10 C08          5.2490     0.6100    -3.0930 c3         1 0VS      -0.012300
     11 C09          3.8460    -0.0000    -3.0480 c3         1 0VS       0.052700
     12 N10          3.3590    -0.0000    -1.6670 ns         1 0VS      -0.558900
     13 C11          2.0330    -0.0000    -1.4200 c          1 0VS       0.669100
     14 C12          1.5310     0.0000     0.0000 c3         1 0VS      -0.177400
     15 C14         -0.5100     0.0000     1.4420 c3         1 0VS      -0.021500
     16 N18         -0.1210    -1.2550     2.1000 nz         1 0VS      -0.792600
     17 O19          1.2450    -0.0010    -2.3430 o          1 0VS      -0.587100
     18 C23          4.8710    -3.0370    -6.7390 c          1 0VS       0.883600
     19 O24          5.0010    -4.1960    -7.4060 o          1 0VS      -0.842300
     20 O25          5.1590    -1.9950    -7.2790 o          1 0VS      -0.842300
     21 C27          7.1090     3.7770    -3.6880 cd         1 0VS      -0.090400
     22 C30         10.4200     2.0180    -1.6230 ca         1 0VS      -0.081000
     23 C31         11.7110     2.4430    -1.8980 ca         1 0VS      -0.119000
     24 C32         11.9370     3.4320    -2.8370 ca         1 0VS      -0.117000
     25 C33         10.8760     4.0120    -3.5170 ca         1 0VS      -0.080000
     26 H1          -0.3610    -0.8850    -0.5110 hc         1 0VS       0.103700
     27 H2          -0.3610     0.8850    -0.5110 hc         1 0VS       0.103700
     28 H3           5.0380    -3.6230    -4.7000 h1         1 0VS       0.048700
     29 H4           3.3760    -3.4690    -5.2870 h1         1 0VS       0.048700
     30 H8           5.9170     0.0240    -2.4730 h1         1 0VS       0.089200
     31 H9           5.6100     0.6100    -4.1140 h1         1 0VS       0.089200
     32 H10          3.1780     0.5850    -3.6670 h1         1 0VS       0.103700
     33 H11          4.0090    -0.0140    -0.9070 hn         1 0VS       0.319500
     34 H12          1.8920     0.8850     0.5100 hc         1 0VS       0.044700
     35 H13          1.8920    -0.8840     0.5110 hc         1 0VS       0.044700
     36 H14         -0.0780     0.8370     1.9770 hx         1 0VS       0.096700
     37 H16         -0.7000    -1.4040     2.9030 hn         1 0VS       0.438467
     38 H17         -0.2360    -2.0160     1.4600 hn         1 0VS       0.438467
     39 H21         10.2480     1.2420    -0.8870 ha         1 0VS       0.155000
     40 H22         12.5260     1.9730    -1.3600 ha         1 0VS       0.136000
     41 H23         12.9500     3.7550    -3.0430 ha         1 0VS       0.135000
     42 H24         11.0610     4.7870    -4.2510 ha         1 0VS       0.155000
     43 S07          5.1870     2.3100    -2.4750 ss         1 0VS      -0.263700
     44 C28          5.9610     4.4160    -4.4260 c3         1 0VS      -0.068900
     45 O17         -2.5870     1.3240     1.2750 o          1 0VS      -0.781300
     46 O26          3.5590    -2.3330    -2.8460 o          1 0VS      -0.635100
     47 O29          7.7300     1.2930    -1.2110 o          1 0VS      -0.504100
     48 H183         0.8370    -1.2000     2.3840 hn         1 0VS       0.438467
     49 O16         -2.6990    -0.8590     1.5960 o          1 0VS      -0.781300
     50 N21          4.3200    -1.6620    -4.8190 ns         1 0VS      -0.541900
     51 O01          8.6210     5.0720    -4.7920 o          1 0VS      -0.505100
     52 H5           6.0720     4.2380    -5.4890 hc         1 0VS       0.069033
     53 H6           5.0280     3.9870    -4.0840 hc         1 0VS       0.069033
     54 H7           5.9600     5.4830    -4.2370 hc         1 0VS       0.069033
     55 H19          4.5700    -0.9010    -5.4200 hn         1 0VS       0.332500
@<TRIPOS>BOND
     1    20    18 1   
     2    18    19 1   
     3    18     4 1   
     4     4    50 1   
     5    23    24 ar  
     6    23    22 ar  
     7    50     3 1   
     8    24    25 ar  
     9    22     7 ar  
    10    25     6 ar  
    11     3    46 2   
    12     3    11 1   
    13     7     6 ar  
    14     7     8 1   
    15     6     5 1   
    16    47     8 2   
    17     8     9 1   
    18    11    10 1   
    19    11    12 1   
    20     5    51 2   
    21     5    21 1   
    22     1    15 1   
    23     1    14 1   
    24    17    13 2   
    25     9    21 2   
    26     9    43 1   
    27    10    43 1   
    28    21    44 1   
    29    12    13 1   
    30    16    15 1   
    31    13    14 1   
    32    15     2 1   
    33     2    45 1   
    34     2    49 1   
    35     1    26 1   
    36     1    27 1   
    37     4    28 1   
    38     4    29 1   
    39    44    52 1   
    40    44    53 1   
    41    44    54 1   
    42    10    30 1   
    43    10    31 1   
    44    11    32 1   
    45    12    33 1   
    46    14    34 1   
    47    14    35 1   
    48    15    36 1   
    49    16    37 1   
    50    16    38 1   
    51    50    55 1   
    52    22    39 1   
    53    23    40 1   
    54    24    41 1   
    55    25    42 1   
    56    48    16 1   
@<TRIPOS>SUBSTRUCTURE
     1 0VS         1 TEMP              0 ****  ****    0 ROOT
