@<TRIPOS>MOLECULE
molecule
   23    22     1     0     0
SMALL
bcc


@<TRIPOS>ATOM
      1 C4           0.0000     0.0000     0.0000 c3         1 0VT      -0.086200
      2 C5           1.5300     0.0000     0.0000 c3         1 0VT      -0.209400
      3 C6           2.0320     0.0000     1.4200 c          1 0VT       0.560100
      4 C7          -1.7880    -2.0000    -0.8620 c3         1 0VT      -0.095400
      5 C8           3.5140     0.0000     1.6960 c3         1 0VT      -0.195100
      6 C1          -1.8370    -0.9290    -3.2420 c3         1 0VT      -0.095400
      7 C2          -1.3340    -0.9290    -1.8210 c2         1 0VT       0.028600
      8 C3          -0.5030     0.0000    -1.4200 c2         1 0VT      -0.525200
      9 O9           1.2490    -0.0010     2.3380 o          1 0VT      -0.521100
     10 H42         -0.3610     0.8850     0.5110 hc         1 0VT       0.072700
     11 H41         -0.3610    -0.8840     0.5110 hc         1 0VT       0.072700
     12 H51          1.8910     0.8850    -0.5110 hc         1 0VT       0.076200
     13 H52          1.8910    -0.8840    -0.5110 hc         1 0VT       0.076200
     14 H73         -2.2130    -1.5370     0.0200 hc         1 0VT       0.051867
     15 H72         -0.9410    -2.6120    -0.5760 hc         1 0VT       0.051867
     16 H71         -2.5370    -2.6200    -1.3410 hc         1 0VT       0.051867
     17 H83          3.9610    -0.8880     1.2660 hc         1 0VT       0.062700
     18 H82          3.9630     0.8810     1.2540 hc         1 0VT       0.062700
     19 H81          3.6820     0.0070     2.7660 hc         1 0VT       0.062700
     20 H11         -2.9180    -0.9890    -3.2420 hc         1 0VT       0.051867
     21 H13         -1.5260    -0.0170    -3.7350 hc         1 0VT       0.051867
     22 H12         -1.4280    -1.7830    -3.7690 hc         1 0VT       0.051867
     23 H31          0.2770    -0.6530    -1.0470 ha         1 0VT       0.342000
@<TRIPOS>BOND
     1     6     7 1   
     2     4     7 1   
     3     7     8 2   
     4     8     1 1   
     5     1     2 1   
     6     2     3 1   
     7     5     3 1   
     8     3     9 2   
     9     1    10 1   
    10     1    11 1   
    11     2    12 1   
    12     2    13 1   
    13     4    14 1   
    14     4    15 1   
    15     4    16 1   
    16     5    17 1   
    17     5    18 1   
    18     5    19 1   
    19     6    20 1   
    20     6    21 1   
    21     6    22 1   
    22     8    23 1   
@<TRIPOS>SUBSTRUCTURE
     1 0VT         1 TEMP              0 ****  ****    0 ROOT
