@<TRIPOS>MOLECULE
0VT
   23    22     1     0     0
SMALL
bcc


@<TRIPOS>ATOM
      1 C4           0.0190     0.5020     0.1610 c3         1 0VT      -0.037200
      2 C5           1.4550     0.0340     0.0410 c3         1 0VT      -0.183400
      3 C6           2.1430    -0.0190     1.3770 c          1 0VT       0.565100
      4 C7          -2.8670     1.0160    -0.1470 c3         1 0VT      -0.060400
      5 C8           1.5080    -0.8840     2.4180 c3         1 0VT      -0.203100
      6 C1          -2.6060     0.8500    -2.6420 c3         1 0VT      -0.060400
      7 C2          -1.9680     0.7950    -1.3050 c2         1 0VT      -0.115400
      8 C3          -0.6550     0.5570    -1.1570 c2         1 0VT      -0.183200
      9 O9           3.1850     0.6070     1.5930 o          1 0VT      -0.531100
     10 H42         -0.5480    -0.1860     0.8470 hc         1 0VT       0.050700
     11 H41         -0.0050     1.5240     0.6330 hc         1 0VT       0.050700
     12 H51          2.0220     0.7220    -0.6420 hc         1 0VT       0.069700
     13 H52          1.4850    -0.9930    -0.4100 hc         1 0VT       0.069700
     14 H73         -2.9800     0.0700     0.4390 hc         1 0VT       0.042033
     15 H72         -3.8810     1.3490    -0.4780 hc         1 0VT       0.042033
     16 H71         -2.4440     1.7960     0.5350 hc         1 0VT       0.042033
     17 H83          2.2380    -1.1290     3.2280 hc         1 0VT       0.063700
     18 H82          1.1320    -1.8320     1.9630 hc         1 0VT       0.063700
     19 H81          0.6440    -0.3380     2.8710 hc         1 0VT       0.063700
     20 H11         -3.0410     1.8660    -2.8170 hc         1 0VT       0.042033
     21 H13         -3.4340     0.1010    -2.7020 hc         1 0VT       0.042033
     22 H12         -1.8740     0.6350    -3.4590 hc         1 0VT       0.042033
     23 H31         -0.0120     0.3950    -2.0380 ha         1 0VT       0.125000
@<TRIPOS>BOND
     1     1     2 1   
     2     1     8 1   
     3     1    10 1   
     4     1    11 1   
     5     2     3 1   
     6     2    12 1   
     7     2    13 1   
     8     3     5 1   
     9     3     9 2   
    10     4     7 1   
    11     4    14 1   
    12     4    15 1   
    13     4    16 1   
    14     5    17 1   
    15     5    18 1   
    16     5    19 1   
    17     6     7 1   
    18     6    20 1   
    19     6    21 1   
    20     6    22 1   
    21     7     8 2   
    22     8    23 1   
@<TRIPOS>SUBSTRUCTURE
     1 0VT         1 TEMP              0 ****  ****    0 ROOT
