@<TRIPOS>MOLECULE
0VT
   23    22     1     0     0
SMALL
bcc


@<TRIPOS>ATOM
      1 C4           0.0000     0.0000     0.0000 c3         1 0VT       0.014800
      2 C5           1.5300     0.0000     0.0000 c3         1 0VT      -0.118400
      3 C6           2.0320     0.0000     1.4200 c          1 0VT       0.599100
      4 C7          -1.7880    -2.0000    -0.8620 c3         1 0VT       0.058600
      5 C8           3.5140     0.0000     1.6960 c3         1 0VT      -0.093100
      6 C1          -1.8370    -0.9290    -3.2420 c3         1 0VT       0.058600
      7 C2          -1.3340    -0.9290    -1.8210 c2         1 0VT      -0.142400
      8 C3          -0.5030     0.0000    -1.4200 c2         1 0VT      -0.181200
      9 O9           1.2490    -0.0010     2.3380 o          1 0VT      -0.557100
     10 H42         -0.3610     0.8840     0.5110 hc         1 0VT       0.034700
     11 H41         -0.3610    -0.8840     0.5110 hc         1 0VT       0.034700
     12 H51          1.8910     0.8850    -0.5110 hc         1 0VT       0.033700
     13 H52          1.8910    -0.8840    -0.5110 hc         1 0VT       0.033700
     14 H73         -0.9330    -2.5820    -0.5390 hc         1 0VT       0.007533
     15 H72         -2.2560    -1.5380    -0.0010 hc         1 0VT       0.007533
     16 H71         -2.5010    -2.6490    -1.3560 hc         1 0VT       0.007533
     17 H83          3.6820    -0.0010     2.7660 hc         1 0VT       0.024033
     18 H82          3.9620     0.8860     1.2610 hc         1 0VT       0.024033
     19 H81          3.9630    -0.8830     1.2580 hc         1 0VT       0.024033
     20 H11         -1.1330    -0.4020    -3.8740 hc         1 0VT       0.007533
     21 H13         -1.9390    -1.9510    -3.5880 hc         1 0VT       0.007533
     22 H12         -2.8000    -0.4350    -3.2840 hc         1 0VT       0.007533
     23 H31         -0.2040     0.7890    -2.1000 ha         1 0VT       0.105000
@<TRIPOS>BOND
     1     1     2 1   
     2     1     8 1   
     3     1    10 1   
     4     1    11 1   
     5     2     3 1   
     6     2    12 1   
     7     2    13 1   
     8     3     5 1   
     9     3     9 2   
    10     4     7 1   
    11     4    14 1   
    12     4    15 1   
    13     4    16 1   
    14     5    17 1   
    15     5    18 1   
    16     5    19 1   
    17     6     7 1   
    18     6    20 1   
    19     6    21 1   
    20     6    22 1   
    21     7     8 2   
    22     8    23 1   
@<TRIPOS>SUBSTRUCTURE
     1 0VT         1 TEMP              0 ****  ****    0 ROOT
