@<TRIPOS>MOLECULE
0VU
   55    58     1     0     0
SMALL
bcc


@<TRIPOS>ATOM
      1 C1           0.3850    -0.8220     2.0120 ca         1 0VU      -0.132000
      2 C2           1.7100    -0.7020     1.5930 ca         1 0VU      -0.076000
      3 C3           2.6030     0.0950     2.3200 cp         1 0VU      -0.171500
      4 C4           2.1480     0.7890     3.4510 ca         1 0VU      -0.049000
      5 C5           0.8220     0.6590     3.8700 ca         1 0VU      -0.153600
      6 C6          -0.0610    -0.1550     3.1540 ca         1 0VU      -0.077000
      7 C7           0.4260     1.3350     5.1420 c          1 0VU       0.706700
      8 N1          -0.7440     2.0500     5.2150 n          1 0VU      -0.437800
      9 N2           6.7750     0.2270     1.3890 nb         1 0VU      -0.689000
     10 N3           4.9130     0.2540     2.9850 nb         1 0VU      -0.752000
     11 N4           7.1660     0.4090     3.7620 nu         1 0VU      -0.723300
     12 C8          -1.4980     2.4680     4.0490 c3         1 0VU       0.082500
     13 O1           1.1610     1.2070     6.1600 o          1 0VU      -0.736100
     14 C9          -1.6950     3.9830     3.9530 c3         1 0VU      -0.098400
     15 C10         -2.2350     4.5540     5.2470 c3         1 0VU      -0.082400
     16 C11         -1.3600     4.1540     6.4150 c3         1 0VU      -0.098400
     17 C12         -1.1790     2.6370     6.4710 c3         1 0VU       0.082500
     18 C13          4.0310     0.1490     1.9580 cp         1 0VU       0.529800
     19 C14          4.4740     0.0830     0.6210 ca         1 0VU      -0.360600
     20 C15          5.8660     0.1280     0.4030 ca         1 0VU       0.464200
     21 C16          6.2530     0.2820     2.6710 ca         1 0VU       0.855900
     22 C17          6.7220     0.2500     5.0640 ca         1 0VU       0.311600
     23 C18          7.1060     1.1630     6.0880 ca         1 0VU      -0.191000
     24 C19          6.4700     1.1310     7.3110 ca         1 0VU       0.040000
     25 C20          5.4670     0.1780     7.6090 ca         1 0VU      -0.609500
     26 C21          5.2620    -0.8560     6.6600 ca         1 0VU       0.040000
     27 C22          5.8640    -0.8320     5.4260 ca         1 0VU      -0.191000
     28 S1           4.5980     0.2360     8.9350 sy         1 0VU       1.504200
     29 O2           4.9520     1.2300     9.8300 o          1 0VU      -0.585800
     30 O3           4.0980    -0.9730     9.3820 o          1 0VU      -0.585800
     31 N5           3.0360     0.9820     8.1770 nz         1 0VU      -0.787500
     32 H1          -0.3120    -1.4570     1.4430 ha         1 0VU       0.157000
     33 H2           2.0560    -1.2490     0.7020 ha         1 0VU       0.151000
     34 H3           2.8300     1.4330     4.0290 ha         1 0VU       0.151000
     35 H4          -1.1030    -0.2790     3.4910 ha         1 0VU       0.153000
     36 H5           7.9920     0.9450     3.5920 hn         1 0VU       0.475800
     37 H6          -0.9870     2.1170     3.1090 h1         1 0VU       0.060200
     38 H7          -2.5110     1.9720     4.1070 h1         1 0VU       0.060200
     39 H8          -2.4120     4.1850     3.1150 hc         1 0VU       0.056700
     40 H9          -0.7230     4.4780     3.6970 hc         1 0VU       0.056700
     41 H10         -3.2800     4.1830     5.4150 hc         1 0VU       0.056200
     42 H11         -2.2830     5.6720     5.1750 hc         1 0VU       0.056200
     43 H12         -0.3620     4.6570     6.3320 hc         1 0VU       0.056700
     44 H13         -1.8300     4.4850     7.3780 hc         1 0VU       0.056700
     45 H14         -2.1690     2.1620     6.7330 h1         1 0VU       0.060200
     46 H15         -0.4410     2.3810     7.2810 h1         1 0VU       0.060200
     47 H16          3.7700     0.0100    -0.2170 ha         1 0VU       0.173000
     48 H17          6.2860     0.0830    -0.6220 h4         1 0VU       0.053100
     49 H18          7.8820     1.9220     5.8950 ha         1 0VU       0.174000
     50 H19          6.7290     1.8870     8.0770 ha         1 0VU       0.167000
     51 H20          4.5960    -1.7000     6.9240 ha         1 0VU       0.167000
     52 H21          5.6660    -1.6440     4.7050 ha         1 0VU       0.174000
     53 H22          2.2280     0.3670     8.2860 hn         1 0VU       0.463467
     54 H23          3.1160     1.1510     7.1700 hn         1 0VU       0.463467
     55 H53          2.7960     1.8710     8.6100 hn         1 0VU       0.463467
@<TRIPOS>BOND
     1     1     2 ar  
     2     1     6 ar  
     3     1    32 1   
     4     2     3 ar  
     5     2    33 1   
     6     3     4 ar  
     7     3    18 1   
     8     4     5 ar  
     9     4    34 1   
    10     5     6 ar  
    11     5     7 1   
    12     6    35 1   
    13     7     8 1   
    14     7    13 2   
    15     8    12 1   
    16     8    17 1   
    17     9    20 ar  
    18     9    21 ar  
    19    10    18 ar  
    20    10    21 ar  
    21    11    21 1   
    22    11    22 1   
    23    11    36 1   
    24    12    14 1   
    25    12    37 1   
    26    12    38 1   
    27    14    15 1   
    28    14    39 1   
    29    14    40 1   
    30    15    16 1   
    31    15    41 1   
    32    15    42 1   
    33    16    17 1   
    34    16    43 1   
    35    16    44 1   
    36    17    45 1   
    37    17    46 1   
    38    18    19 ar  
    39    19    20 ar  
    40    19    47 1   
    41    20    48 1   
    42    22    23 ar  
    43    22    27 ar  
    44    23    24 ar  
    45    23    49 1   
    46    24    25 ar  
    47    24    50 1   
    48    25    26 ar  
    49    25    28 1   
    50    26    27 ar  
    51    26    51 1   
    52    27    52 1   
    53    28    29 2   
    54    28    30 2   
    55    28    31 1   
    56    31    53 1   
    57    31    54 1   
    58    31    55 1   
@<TRIPOS>SUBSTRUCTURE
     1 0VU         1 TEMP              0 ****  ****    0 ROOT
