@<TRIPOS>MOLECULE
0VU
   55    58     1     0     0
SMALL
bcc


@<TRIPOS>ATOM
      1 C1           0.0000     0.0000     0.0000 ca         1 0VU      -0.114000
      2 C2           1.3820     0.0000     0.0000 ca         1 0VU      -0.029000
      3 C3           2.0830     0.0000     1.2070 cp         1 0VU      -0.216500
      4 C4           1.3870    -0.0010     2.4110 ca         1 0VU      -0.012000
      5 C5          -0.0060    -0.0010     2.4060 ca         1 0VU      -0.157600
      6 C6          -0.6960     0.0000     1.1910 ca         1 0VU      -0.067000
      7 C7          -0.7530    -0.0020     3.6820 c          1 0VU       0.609700
      8 N1          -1.9360    -0.6410     3.7710 n          1 0VU      -0.136800
      9 N2           6.1040     0.8520     1.6570 nb         1 0VU      -0.700000
     10 N3           4.0630     0.3520     2.6250 nb         1 0VU      -0.647000
     11 N4           5.9570     0.5790     3.9740 nu         1 0VU      -0.286300
     12 C8          -2.7490    -0.5470     4.9910 c3         1 0VU       0.027500
     13 O1          -0.2990     0.5730     4.6520 o          1 0VU      -0.652100
     14 C9          -3.0780    -1.9630     5.4740 c3         1 0VU      -0.039400
     15 C10         -3.7400    -2.7440     4.3370 c3         1 0VU      -0.027400
     16 C11         -2.7710    -2.8500     3.1570 c3         1 0VU      -0.039400
     17 C12         -2.4410    -1.4390     2.6460 c3         1 0VU       0.027500
     18 C13          3.4600     0.3600     1.4380 cp         1 0VU       0.546800
     19 C14          4.2180     0.6280     0.2950 ca         1 0VU      -0.383600
     20 C15          5.5720     0.8760     0.4450 ca         1 0VU       0.488200
     21 C16          5.3600     0.5940     2.7240 ca         1 0VU       0.684900
     22 C17          7.2990     0.9470     4.1130 ca         1 0VU       0.118600
     23 C18          7.8160     1.9900     3.3550 ca         1 0VU      -0.141500
     24 C19          9.1410     2.3520     3.4950 ca         1 0VU       0.033500
     25 C20          9.9520     1.6770     4.3890 ca         1 0VU      -0.262500
     26 C21          9.4410     0.6390     5.1450 ca         1 0VU       0.033500
     27 C22          8.1140     0.2760     5.0140 ca         1 0VU      -0.141500
     28 S1          11.6430     2.1420     4.5650 sy         1 0VU       0.930200
     29 O2          12.3220     1.0030     5.0740 o          1 0VU      -0.500800
     30 O3          12.0090     2.7880     3.3530 o          1 0VU      -0.500800
     31 N5          11.7130     3.2970     5.7500 nz         1 0VU      -0.133500
     32 H1          -0.5390     0.0020    -0.9400 ha         1 0VU       0.115000
     33 H2           1.9230     0.0000    -0.9390 ha         1 0VU       0.107000
     34 H3           1.9250     0.0830     3.3480 ha         1 0VU       0.146000
     35 H4          -1.7780     0.0620     1.1850 ha         1 0VU       0.127000
     36 H5           5.4190     0.3370     4.7820 hn         1 0VU       0.310800
     37 H6          -2.1920    -0.0230     5.7580 h1         1 0VU       0.037450
     38 H7          -3.6680    -0.0160     4.7740 h1         1 0VU       0.037450
     39 H8          -2.1640    -2.4640     5.7710 hc         1 0VU       0.023450
     40 H9          -3.7560    -1.9070     6.3170 hc         1 0VU       0.023450
     41 H10         -4.6370    -2.2270     4.0200 hc         1 0VU       0.019700
     42 H11         -3.9940    -3.7380     4.6840 hc         1 0VU       0.019700
     43 H12         -3.2320    -3.4230     2.3620 hc         1 0VU       0.023450
     44 H13         -1.8600    -3.3390     3.4810 hc         1 0VU       0.023450
     45 H14         -3.3370    -0.9780     2.2480 h1         1 0VU       0.037450
     46 H15         -1.6830    -1.5000     1.8750 h1         1 0VU       0.037450
     47 H16          3.8450     0.3430    -0.6810 ha         1 0VU       0.141000
     48 H17          6.2120     0.9280    -0.4270 h4         1 0VU      -0.009900
     49 H18          7.1630     2.5660     2.7100 ha         1 0VU       0.142000
     50 H19          9.5480     3.1600     2.8990 ha         1 0VU       0.122500
     51 H20         10.0830     0.1030     5.8330 ha         1 0VU       0.122500
     52 H21          7.7250    -0.5650     5.5750 ha         1 0VU       0.142000
     53 H22         12.6630     3.5850     5.8790 hn         1 0VU       0.311467
     54 H23         11.3610     2.9180     6.6060 hn         1 0VU       0.311467
     55 H53         11.1590     4.0850     5.4810 hn         1 0VU       0.311467
@<TRIPOS>BOND
     1     1     2 ar  
     2     1     6 ar  
     3     1    32 1   
     4     2     3 ar  
     5     2    33 1   
     6     3     4 ar  
     7     3    18 1   
     8     4     5 ar  
     9     4    34 1   
    10     5     6 ar  
    11     5     7 1   
    12     6    35 1   
    13     7     8 1   
    14     7    13 2   
    15     8    12 1   
    16     8    17 1   
    17     9    20 ar  
    18     9    21 ar  
    19    10    18 ar  
    20    10    21 ar  
    21    11    21 1   
    22    11    22 1   
    23    11    36 1   
    24    12    14 1   
    25    12    37 1   
    26    12    38 1   
    27    14    15 1   
    28    14    39 1   
    29    14    40 1   
    30    15    16 1   
    31    15    41 1   
    32    15    42 1   
    33    16    17 1   
    34    16    43 1   
    35    16    44 1   
    36    17    45 1   
    37    17    46 1   
    38    18    19 ar  
    39    19    20 ar  
    40    19    47 1   
    41    20    48 1   
    42    22    23 ar  
    43    22    27 ar  
    44    23    24 ar  
    45    23    49 1   
    46    24    25 ar  
    47    24    50 1   
    48    25    26 ar  
    49    25    28 1   
    50    26    27 ar  
    51    26    51 1   
    52    27    52 1   
    53    28    29 2   
    54    28    30 2   
    55    28    31 1   
    56    31    53 1   
    57    31    54 1   
    58    31    55 1   
@<TRIPOS>SUBSTRUCTURE
     1 0VU         1 TEMP              0 ****  ****    0 ROOT
