@<TRIPOS>MOLECULE
molecule
   55    58     1     0     0
SMALL
bcc


@<TRIPOS>ATOM
      1 C1           0.0000     0.0000     0.0000 ca         1 0VU      -0.145000
      2 C2           1.3820     0.0000     0.0000 ca         1 0VU      -0.060000
      3 C3           2.0830     0.0000     1.2070 cp         1 0VU      -0.202500
      4 C4           1.3870    -0.0010     2.4110 ca         1 0VU      -0.034000
      5 C5          -0.0060    -0.0010     2.4060 ca         1 0VU      -0.153600
      6 C6          -0.6960     0.0000     1.1910 ca         1 0VU      -0.080000
      7 C7          -0.7530    -0.0020     3.6820 c          1 0VU       0.676700
      8 N1          -1.9360    -0.6410     3.7710 n          1 0VU      -0.481800
      9 N2           6.1040     0.8520     1.6570 nb         1 0VU      -0.806000
     10 N3           4.0630     0.3520     2.6250 nb         1 0VU      -0.773000
     11 N4           5.9570     0.5790     3.9740 nu         1 0VU      -0.752300
     12 C8          -2.7490    -0.5470     4.9910 c3         1 0VU       0.095500
     13 O1          -0.2990     0.5730     4.6520 o          1 0VU      -0.609100
     14 C9          -3.0780    -1.9630     5.4740 c3         1 0VU      -0.098400
     15 C10         -3.7400    -2.7440     4.3370 c3         1 0VU      -0.081400
     16 C11         -2.7710    -2.8500     3.1570 c3         1 0VU      -0.098400
     17 C12         -2.4410    -1.4390     2.6460 c3         1 0VU       0.095500
     18 C13          3.4600     0.3600     1.4380 cp         1 0VU       0.586800
     19 C14          4.2180     0.6280     0.2950 ca         1 0VU      -0.409600
     20 C15          5.5720     0.8760     0.4450 ca         1 0VU       0.496200
     21 C16          5.3600     0.5940     2.7240 ca         1 0VU       0.924900
     22 C17          7.2990     0.9470     4.1130 ca         1 0VU       0.280600
     23 C18          7.8160     1.9900     3.3550 ca         1 0VU      -0.156000
     24 C19          9.1410     2.3520     3.4950 ca         1 0VU      -0.011500
     25 C20          9.9520     1.6770     4.3890 ca         1 0VU      -0.372500
     26 C21          9.4410     0.6390     5.1450 ca         1 0VU      -0.011500
     27 C22          8.1140     0.2760     5.0140 ca         1 0VU      -0.156000
     28 S1          11.6430     2.1420     4.5650 sy         1 0VU       1.222200
     29 O2          12.3220     1.0030     5.0740 o          1 0VU      -0.524800
     30 O3          12.0090     2.7880     3.3530 o          1 0VU      -0.524800
     31 N5          11.7130     3.2970     5.7500 nz         1 0VU      -0.805500
     32 H1          -0.5390     0.0020    -0.9400 ha         1 0VU       0.146000
     33 H2           1.9230     0.0000    -0.9390 ha         1 0VU       0.137000
     34 H3           1.9250     0.0830     3.3480 ha         1 0VU       0.178000
     35 H4          -1.7780     0.0620     1.1850 ha         1 0VU       0.151000
     36 H5           5.4190     0.3370     4.7820 hn         1 0VU       0.485800
     37 H6          -2.1920    -0.0230     5.7580 h1         1 0VU       0.060450
     38 H7          -3.6680    -0.0160     4.7740 h1         1 0VU       0.060450
     39 H8          -2.1640    -2.4640     5.7710 hc         1 0VU       0.052700
     40 H9          -3.7560    -1.9070     6.3170 hc         1 0VU       0.052700
     41 H10         -4.6370    -2.2270     4.0200 hc         1 0VU       0.047200
     42 H11         -3.9940    -3.7380     4.6840 hc         1 0VU       0.047200
     43 H12         -3.2320    -3.4230     2.3620 hc         1 0VU       0.052700
     44 H13         -1.8600    -3.3390     3.4810 hc         1 0VU       0.052700
     45 H14         -3.3370    -0.9780     2.2480 h1         1 0VU       0.060450
     46 H15         -1.6830    -1.5000     1.8750 h1         1 0VU       0.060450
     47 H16          3.8450     0.3430    -0.6810 ha         1 0VU       0.160000
     48 H17          6.2120     0.9280    -0.4270 h4         1 0VU       0.039100
     49 H18          7.1630     2.5660     2.7100 ha         1 0VU       0.173500
     50 H19          9.5480     3.1600     2.8990 ha         1 0VU       0.154500
     51 H20         10.0830     0.1030     5.8330 ha         1 0VU       0.154500
     52 H21          7.7250    -0.5650     5.5750 ha         1 0VU       0.173500
     53 H22         12.6630     3.5850     5.8790 hn         1 0VU       0.489467
     54 H23         11.3610     2.9180     6.6060 hn         1 0VU       0.489467
     55 H53         11.1590     4.0850     5.4810 hn         1 0VU       0.489467
@<TRIPOS>BOND
     1    20     9 ar  
     2    20    19 ar  
     3     9    21 ar  
     4    19    18 ar  
     5    21    11 1   
     6    21    10 ar  
     7    11    22 1   
     8    18    10 ar  
     9    18     3 1   
    10    23    22 ar  
    11    23    24 ar  
    12     2     3 ar  
    13     2     1 ar  
    14    22    27 ar  
    15     3     4 ar  
    16    24    25 ar  
    17     1     6 ar  
    18    27    26 ar  
    19    31    28 1   
    20    25    26 ar  
    21    25    28 1   
    22    30    28 2   
    23     4     5 ar  
    24    14    12 1   
    25    14    15 1   
    26    12     8 1   
    27     6     5 ar  
    28    28    29 2   
    29     5     7 1   
    30    15    16 1   
    31     8     7 1   
    32     8    17 1   
    33     7    13 2   
    34    17    16 1   
    35     1    32 1   
    36     2    33 1   
    37     4    34 1   
    38     6    35 1   
    39    11    36 1   
    40    12    37 1   
    41    12    38 1   
    42    14    39 1   
    43    14    40 1   
    44    15    41 1   
    45    15    42 1   
    46    16    43 1   
    47    16    44 1   
    48    17    45 1   
    49    17    46 1   
    50    19    47 1   
    51    20    48 1   
    52    23    49 1   
    53    24    50 1   
    54    26    51 1   
    55    27    52 1   
    56    31    53 1   
    57    31    54 1   
    58    55    31 1   
@<TRIPOS>SUBSTRUCTURE
     1 0VU         1 TEMP              0 ****  ****    0 ROOT
