@<TRIPOS>MOLECULE
molecule
   26    27     1     0     0
SMALL
bcc


@<TRIPOS>ATOM
      1 C1           0.0000     0.0000     0.0000 ca         1 0VV      -0.124000
      2 C2           1.3830     0.0000     0.0000 ca         1 0VV      -0.083000
      3 C3           2.0720     0.0000     1.1960 ca         1 0VV      -0.145000
      4 C8          -0.7910     0.0270     3.6880 c3         1 0VV       0.289100
      5 C10          1.3820     0.1760     4.7820 c2         1 0VV       1.050100
      6 C4           1.3770    -0.0010     2.3990 ca         1 0VV       0.139600
      7 C5          -0.0100     0.0080     2.3980 ca         1 0VV      -0.152300
      8 C6          -0.6940     0.0040     1.1950 ca         1 0VV      -0.086000
      9 N7           2.0900    -0.0260     3.6060 nu         1 0VV      -0.710600
     10 N9           0.0940    -0.3440     4.8010 nu         1 0VV      -0.980200
     11 N11          1.8910     0.8120     5.7990 ne         1 0VV      -0.901300
     12 S12          0.9950     1.0210     7.1760 sy         1 0VV       1.407300
     13 N13          1.9350     1.8590     8.2500 nz         1 0VV      -0.797500
     14 O14         -0.0810     1.8830     6.8280 o          1 0VV      -0.560300
     15 O15          0.8050    -0.2720     7.7320 o          1 0VV      -0.560300
     16 H1          -0.5400    -0.0000    -0.9390 ha         1 0VV       0.153000
     17 H2           1.9250    -0.0030    -0.9380 ha         1 0VV       0.154000
     18 H3           3.1560     0.0000     1.1960 ha         1 0VV       0.145000
     19 H4          -1.1840     1.0230     3.8560 h1         1 0VV       0.076200
     20 H5          -1.6070    -0.6830     3.6250 h1         1 0VV       0.076200
     21 H6          -1.7780     0.0040     1.1900 ha         1 0VV       0.147000
     22 H7           3.0080    -0.4240     3.6370 hn         1 0VV       0.489800
     23 H9           1.4240     2.0050     9.0980 hn         1 0VV       0.496467
     24 H10          2.7650     1.3340     8.4470 hn         1 0VV       0.496467
     25 H11         -0.2170    -0.9440     5.5400 hn         1 0VV       0.485800
     26 H133         2.3280     2.6590     7.7960 hn         1 0VV       0.496467
@<TRIPOS>BOND
     1    15    12 2   
     2    14    12 2   
     3    12    11 1   
     4    12    13 1   
     5    11     5 2   
     6    10     5 1   
     7    10     4 1   
     8     5     9 1   
     9     9     6 1   
    10     2     3 ar  
    11     2     1 ar  
    12     3     6 ar  
    13     1     8 ar  
    14     6     7 ar  
    15     8     7 ar  
    16     7     4 1   
    17     1    16 1   
    18     2    17 1   
    19     3    18 1   
    20     4    19 1   
    21     4    20 1   
    22     8    21 1   
    23     9    22 1   
    24    13    23 1   
    25    13    24 1   
    26    10    25 1   
    27    26    13 1   
@<TRIPOS>SUBSTRUCTURE
     1 0VV         1 TEMP              0 ****  ****    0 ROOT
