@<TRIPOS>MOLECULE
0VV
   26    27     1     0     0
SMALL
bcc


@<TRIPOS>ATOM
      1 C1           0.0000     0.0000     0.0000 ca         1 0VV      -0.085000
      2 C2           1.3830     0.0000     0.0000 ca         1 0VV      -0.055000
      3 C3           2.0720     0.0000     1.1960 ca         1 0VV      -0.108000
      4 C8          -0.7910     0.0270     3.6880 c3         1 0VV       0.260100
      5 C10          1.3820     0.1760     4.7820 c2         1 0VV       0.767100
      6 C4           1.3770    -0.0010     2.3990 ca         1 0VV      -0.028400
      7 C5          -0.0100     0.0080     2.3980 ca         1 0VV      -0.150300
      8 C6          -0.6940     0.0040     1.1950 ca         1 0VV      -0.055000
      9 N7           2.0900    -0.0260     3.6060 nu         1 0VV      -0.233600
     10 N9           0.0940    -0.3440     4.8010 nu         1 0VV      -0.607200
     11 N11          1.8910     0.8120     5.7990 ne         1 0VV      -0.771300
     12 S12          0.9950     1.0210     7.1760 sy         1 0VV       1.074300
     13 N13          1.9350     1.8590     8.2500 nz         1 0VV      -0.091500
     14 O14         -0.0810     1.8830     6.8280 o          1 0VV      -0.535800
     15 O15          0.8050    -0.2720     7.7320 o          1 0VV      -0.535800
     16 H1          -0.5400    -0.0000    -0.9390 ha         1 0VV       0.120000
     17 H2           1.9250    -0.0030    -0.9380 ha         1 0VV       0.119000
     18 H3           3.1560     0.0000     1.1960 ha         1 0VV       0.117000
     19 H4          -1.6070    -0.6830     3.6250 h1         1 0VV       0.038700
     20 H5          -1.1840     1.0230     3.8560 h1         1 0VV       0.038700
     21 H6          -1.7780     0.0040     1.1900 ha         1 0VV       0.117000
     22 H7           3.0080    -0.4240     3.6370 hn         1 0VV       0.315800
     23 H9           2.1860     2.7440     7.8550 hn         1 0VV       0.313133
     24 H10          1.4240     2.0050     9.0980 hn         1 0VV       0.313133
     25 H11         -0.2170    -0.9440     5.5400 hn         1 0VV       0.350800
     26 H133         2.6720     1.2670     8.5800 hn         1 0VV       0.313133
@<TRIPOS>BOND
     1     1     2 ar  
     2     1     8 ar  
     3     1    16 1   
     4     2     3 ar  
     5     2    17 1   
     6     3     6 ar  
     7     3    18 1   
     8     4     7 1   
     9     4    10 1   
    10     4    19 1   
    11     4    20 1   
    12     5     9 1   
    13     5    10 1   
    14     5    11 2   
    15     6     7 ar  
    16     6     9 1   
    17     7     8 ar  
    18     8    21 1   
    19     9    22 1   
    20    10    25 1   
    21    11    12 1   
    22    12    13 1   
    23    12    14 2   
    24    12    15 2   
    25    13    23 1   
    26    13    24 1   
    27    13    26 1   
@<TRIPOS>SUBSTRUCTURE
     1 0VV         1 TEMP              0 ****  ****    0 ROOT
