@<TRIPOS>MOLECULE
molecule
   26    27     1     0     0
SMALL
bcc


@<TRIPOS>ATOM
      1 C1           0.0000     0.0000     0.0000 ca         1 0VV      -0.109000
      2 C2           1.3930     0.0000     0.0000 ca         1 0VV      -0.083000
      3 C3           2.1480     0.0000     1.1990 ca         1 0VV      -0.133000
      4 C8          -0.6590    -0.0360     3.7140 c3         1 0VV       0.256100
      5 C10          1.5050    -0.6850     4.7310 c2         1 0VV       1.147100
      6 C4           1.4660    -0.0350     2.4340 ca         1 0VV       0.111600
      7 C5          -0.0020    -0.0030     2.4240 ca         1 0VV      -0.136300
      8 C6          -0.7020     0.0020     1.1900 ca         1 0VV      -0.084000
      9 N7           2.1040    -0.2240     3.6060 nu         1 0VV      -0.687600
     10 N9           0.1230    -0.7570     4.7620 nu         1 0VV      -0.817200
     11 N11          2.3250    -1.4410     5.5440 ne         1 0VV      -1.279300
     12 S12          1.8050    -1.9950     6.8980 sy         1 0VV       1.807300
     13 N13          1.9930    -0.7040     7.8240 nz         1 0VV      -0.769500
     14 O14          0.4650    -2.4520     7.0070 o          1 0VV      -0.605800
     15 O15          2.7560    -3.0270     7.2020 o          1 0VV      -0.605800
     16 H1          -0.4850    -0.0220    -0.9680 ha         1 0VV       0.165000
     17 H2           1.8950    -0.0050    -0.9600 ha         1 0VV       0.164000
     18 H3           3.2130     0.0630     1.0110 ha         1 0VV       0.155000
     19 H4          -0.8200     0.9830     4.0450 h1         1 0VV       0.085200
     20 H5          -1.6180    -0.5260     3.6010 h1         1 0VV       0.085200
     21 H6          -1.7700     0.0440     1.0170 ha         1 0VV       0.158000
     22 H7           3.0810    -0.0100     3.6480 hn         1 0VV       0.486800
     23 H9           2.8130    -0.2050     7.5400 hn         1 0VV       0.401800
     24 H10          1.1930    -0.1090     7.7340 hn         1 0VV       0.401800
     25 H11         -0.3430    -1.2840     5.4740 hn         1 0VV       0.483800
     26 H133         2.1380    -0.9910     8.7720 hn         1 0VV       0.401800
@<TRIPOS>BOND
     1    15    12 2   
     2    14    12 2   
     3    12    11 1   
     4    12    13 1   
     5    11     5 2   
     6    10     5 1   
     7    10     4 1   
     8     5     9 1   
     9     9     6 1   
    10     2     3 ar  
    11     2     1 ar  
    12     3     6 ar  
    13     1     8 ar  
    14     6     7 ar  
    15     8     7 ar  
    16     7     4 1   
    17     1    16 1   
    18     2    17 1   
    19     3    18 1   
    20     4    19 1   
    21     4    20 1   
    22     8    21 1   
    23     9    22 1   
    24    13    23 1   
    25    13    24 1   
    26    10    25 1   
    27    26    13 1   
@<TRIPOS>SUBSTRUCTURE
     1 0VV         1 TEMP              0 ****  ****    0 ROOT
