@<TRIPOS>MOLECULE
molecule
   22    22     1     0     0
SMALL
bcc


@<TRIPOS>ATOM
      1 C1           0.0000     0.0000     0.0000 c2         1 0VW       1.142100
      2 N2          -0.5160    -0.0550    -1.2260 ne         1 0VW      -1.282300
      3 N3           1.3800     0.0000     0.0000 nu         1 0VW      -0.825200
      4 C4           2.0810     0.0000     1.2910 c3         1 0VW       0.196800
      5 C5           1.3500    -0.5830     2.4620 c3         1 0VW      -0.121400
      6 C6          -0.1160    -0.2350     2.5470 c3         1 0VW       0.196800
      7 N7          -0.6810     0.0040     1.2090 nu         1 0VW      -0.825200
      8 S8          -2.1130     0.2110    -1.4590 sy         1 0VW       1.808300
      9 N9          -2.3270     1.4780    -2.3490 nz         1 0VW      -0.768500
     10 O10         -2.9230     0.2870    -0.2860 o          1 0VW      -0.606800
     11 O11         -2.5130    -1.0080    -2.2610 o          1 0VW      -0.606800
     12 H2           3.0040    -0.5540     1.1670 h1         1 0VW       0.084200
     13 H3           2.3290     1.0260     1.5330 h1         1 0VW       0.084200
     14 H4           1.3750    -1.6540     2.3030 hc         1 0VW       0.093200
     15 H5           1.8000    -0.1200     3.3320 hc         1 0VW       0.093200
     16 H6          -0.1630     0.7180     3.0610 h1         1 0VW       0.084200
     17 H7          -0.6090    -1.1240     2.9200 h1         1 0VW       0.084200
     18 H8          -1.6530     0.2380     1.1710 hn         1 0VW       0.481800
     19 H9          -3.2950     1.5550    -2.5920 hn         1 0VW       0.401467
     20 H10         -2.0450     2.2930    -1.8420 hn         1 0VW       0.401467
     21 H1           1.8550     0.3580    -0.8050 hn         1 0VW       0.481800
     22 H93         -1.7930     1.3880    -3.1900 hn         1 0VW       0.401467
@<TRIPOS>BOND
     1     4     5 1   
     2     4     3 1   
     3     5     6 1   
     4     6     7 1   
     5     3     1 1   
     6     7     1 1   
     7     1     2 2   
     8     9     8 1   
     9    10     8 2   
    10     2     8 1   
    11     8    11 2   
    12     4    12 1   
    13     4    13 1   
    14     5    14 1   
    15     5    15 1   
    16     6    16 1   
    17     6    17 1   
    18     7    18 1   
    19     9    19 1   
    20     9    20 1   
    21     3    21 1   
    22    22     9 1   
@<TRIPOS>SUBSTRUCTURE
     1 0VW         1 TEMP              0 ****  ****    0 ROOT
