@<TRIPOS>MOLECULE
molecule
   22    22     1     0     0
SMALL
bcc


@<TRIPOS>ATOM
      1 C1           0.0000     0.0000     0.0000 c2         1 0VW       1.039100
      2 N2          -0.6860     0.7520    -0.8140 ne         1 0VW      -0.913300
      3 N3           1.3860     0.0000     0.0000 nu         1 0VW      -0.917700
      4 C4           2.0640     0.0000     1.3060 c3         1 0VW       0.222800
      5 C5           1.4540    -1.1060     2.1750 c3         1 0VW      -0.134400
      6 C6          -0.0600    -0.8920     2.2740 c3         1 0VW       0.222800
      7 N7          -0.6180    -0.8370     0.9170 nu         1 0VW      -0.917700
      8 S8          -2.3420     0.7170    -0.7760 sy         1 0VW       1.401300
      9 N9          -2.8800     1.7790    -1.9280 nz         1 0VW      -0.792500
     10 O10         -2.7270    -0.5790    -1.2150 o          1 0VW      -0.566800
     11 O11         -2.7250     1.2580     0.4790 o          1 0VW      -0.566800
     12 H2           1.9230     0.9600     1.7880 h1         1 0VW       0.076200
     13 H3           3.1210    -0.1910     1.1660 h1         1 0VW       0.076200
     14 H4           1.5910    -2.0300     1.6250 hc         1 0VW       0.086700
     15 H5           1.8450    -0.9540     3.1740 hc         1 0VW       0.086700
     16 H6          -0.1980     0.0950     2.6970 h1         1 0VW       0.076200
     17 H7          -0.4630    -1.7890     2.7290 h1         1 0VW       0.076200
     18 H8          -1.4160    -1.3850     0.6620 hn         1 0VW       0.481300
     19 H9          -2.5420     1.4950    -2.8260 hn         1 0VW       0.494800
     20 H10         -2.5420     2.6970    -1.7190 hn         1 0VW       0.494800
     21 H1           1.9060     0.0000    -0.8550 hn         1 0VW       0.481300
     22 H93         -3.8810     1.7960    -1.9240 hn         1 0VW       0.494800
@<TRIPOS>BOND
     1     4     5 1   
     2     4     3 1   
     3     5     6 1   
     4     6     7 1   
     5     3     1 1   
     6     7     1 1   
     7     1     2 2   
     8     9     8 1   
     9    10     8 2   
    10     2     8 1   
    11     8    11 2   
    12     4    12 1   
    13     4    13 1   
    14     5    14 1   
    15     5    15 1   
    16     6    16 1   
    17     6    17 1   
    18     7    18 1   
    19     9    19 1   
    20     9    20 1   
    21     3    21 1   
    22    22     9 1   
@<TRIPOS>SUBSTRUCTURE
     1 0VW         1 TEMP              0 ****  ****    0 ROOT
