@<TRIPOS>MOLECULE
molecule
   18    18     1     0     0
SMALL
bcc


@<TRIPOS>ATOM
      1 C2           0.0000     0.0000     0.0000 c2         1 0VX       0.986500
      2 O4           1.3480     0.0000     0.0000 os         1 0VX      -0.416400
      3 N1          -0.5200     0.0400     1.2700 nu         1 0VX      -0.855200
      4 N3          -0.7250    -0.0280    -1.0810 ne         1 0VX      -0.907300
      5 C5           0.5710    -0.3820     2.1760 c3         1 0VX       0.173800
      6 C6           1.8260     0.0000     1.3550 c3         1 0VX       0.121400
      7 S7           0.0050    -0.0700    -2.5670 sy         1 0VX       1.412300
      8 N8          -1.1990    -0.0990    -3.7030 nz         1 0VX      -0.796500
      9 O9           0.6710     1.1770    -2.7210 o          1 0VX      -0.548300
     10 O10          0.6690    -1.3220    -2.6530 o          1 0VX      -0.548300
     11 H1          -1.4500     0.3010     1.5310 hn         1 0VX       0.511800
     12 H2           0.5350    -1.4500     2.3510 h1         1 0VX       0.092200
     13 H3           0.5360     0.1730     3.1060 h1         1 0VX       0.092200
     14 H4           2.6050    -0.7420     1.4840 h1         1 0VX       0.100700
     15 H5           2.1780     0.9860     1.6340 h1         1 0VX       0.100700
     16 H6          -1.7660    -0.9130    -3.5680 hn         1 0VX       0.494133
     17 H7          -0.7940    -0.1240    -4.6180 hn         1 0VX       0.494133
     18 H83         -1.7650     0.7210    -3.6110 hn         1 0VX       0.494133
@<TRIPOS>BOND
     1     5     6 1   
     2     5     3 1   
     3     6     2 1   
     4     3     1 1   
     5     2     1 1   
     6     1     4 2   
     7     4     7 1   
     8     8     7 1   
     9     9     7 2   
    10     7    10 2   
    11     3    11 1   
    12     5    12 1   
    13     5    13 1   
    14     6    14 1   
    15     6    15 1   
    16     8    16 1   
    17     8    17 1   
    18    18     8 1   
@<TRIPOS>SUBSTRUCTURE
     1 0VX         1 TEMP              0 ****  ****    0 ROOT
