@<TRIPOS>MOLECULE
molecule
   18    18     1     0     0
SMALL
bcc


@<TRIPOS>ATOM
      1 C2           0.0000     0.0000     0.0000 c2         1 0VX       1.137500
      2 O4           1.2850     0.0000     0.0000 os         1 0VX      -0.391400
      3 N1          -0.4660    -0.1380     1.1640 nu         1 0VX      -0.837200
      4 N3          -0.7890     0.3030    -1.0550 ne         1 0VX      -1.191300
      5 C5           0.6890    -0.3410     2.2020 c3         1 0VX       0.167800
      6 C6           1.8060     0.0000     1.3810 c3         1 0VX       0.109400
      7 S7          -0.3750     0.5650    -2.5670 sy         1 0VX       1.794300
      8 N8          -1.2700    -0.3500    -3.4200 nz         1 0VX      -0.769500
      9 O9           0.9790     0.2760    -2.7470 o          1 0VX      -0.582800
     10 O10         -0.7210     1.9640    -2.7310 o          1 0VX      -0.582800
     11 H1          -1.4410    -0.2210     1.3710 hn         1 0VX       0.497800
     12 H2           0.5920     0.3440     3.0360 h1         1 0VX       0.104700
     13 H3           0.7440    -1.3720     2.5310 h1         1 0VX       0.104700
     14 H4           2.5880    -0.7420     1.4860 h1         1 0VX       0.114700
     15 H5           2.1760     0.9840     1.6420 h1         1 0VX       0.114700
     16 H6          -1.0600    -1.3070    -3.2160 hn         1 0VX       0.403800
     17 H7          -2.2310    -0.1670    -3.2100 hn         1 0VX       0.403800
     18 H83         -1.1000    -0.1720    -4.3900 hn         1 0VX       0.403800
@<TRIPOS>BOND
     1     5     6 1   
     2     5     3 1   
     3     6     2 1   
     4     3     1 1   
     5     2     1 1   
     6     1     4 2   
     7     4     7 1   
     8     8     7 1   
     9     9     7 2   
    10     7    10 2   
    11     3    11 1   
    12     5    12 1   
    13     5    13 1   
    14     6    14 1   
    15     6    15 1   
    16     8    16 1   
    17     8    17 1   
    18    18     8 1   
@<TRIPOS>SUBSTRUCTURE
     1 0VX         1 TEMP              0 ****  ****    0 ROOT
