@<TRIPOS>MOLECULE
0VY
   26    26     1     0     0
SMALL
bcc


@<TRIPOS>ATOM
      1 C2           0.0000     0.0000     0.0000 c2         1 0VY       0.470100
      2 C7           3.5920     0.0000     1.1200 c3         1 0VY      -0.015900
      3 C8           2.5310     0.0000     0.0000 c3         1 0VY       0.114800
      4 N1           1.2120    -0.0160     0.6490 nh         1 0VY      -0.191600
      5 N3          -1.1080    -0.0120     0.6880 ne         1 0VY      -0.768300
      6 N4          -0.0450     0.0340    -1.3730 nz         1 0VY       0.052400
      7 C5           1.4030    -0.0530     2.1100 c3         1 0VY       0.114800
      8 C6           2.8100     0.5540     2.3410 c3         1 0VY      -0.015900
      9 S9          -2.5680     0.0140    -0.0930 sy         1 0VY       1.104300
     10 N10         -3.7460    -0.0110     1.0700 nz         1 0VY      -0.052500
     11 O11         -2.6590     1.2800    -0.7300 o          1 0VY      -0.537300
     12 O12         -2.6700    -1.2180    -0.7940 o          1 0VY      -0.537300
     13 H1           4.4160     0.6560     0.8660 hc         1 0VY       0.062950
     14 H2           2.6480    -0.8830    -0.6170 h1         1 0VY       0.058700
     15 H4          -0.2290     0.9700    -1.6780 hn         1 0VY       0.265133
     16 H5           1.3720    -1.0750     2.4670 h1         1 0VY       0.058700
     17 H6           3.2380     0.1940     3.2690 hc         1 0VY       0.062950
     18 H7          -3.6550     0.7970     1.6540 hn         1 0VY       0.326800
     19 H8          -3.6490    -0.8370     1.6250 hn         1 0VY       0.326800
     20 H9           3.9410    -1.0070     1.3160 hc         1 0VY       0.062950
     21 H10          2.6340     0.8940    -0.6030 h1         1 0VY       0.058700
     22 H3           0.8330    -0.2700    -1.7440 hn         1 0VY       0.265133
     23 H11          0.6490     0.5490     2.6030 h1         1 0VY       0.058700
     24 H12          2.7720     1.6360     2.3150 hc         1 0VY       0.062950
     25 H43         -0.7540    -0.5920    -1.7000 hn         1 0VY       0.265133
     26 H103        -4.6360     0.1630     0.6460 hn         1 0VY       0.326800
@<TRIPOS>BOND
     1     1     4 1   
     2     1     5 2   
     3     1     6 1   
     4     2     3 1   
     5     2     8 1   
     6     2    13 1   
     7     2    20 1   
     8     3     4 1   
     9     3    14 1   
    10     3    21 1   
    11     4     7 1   
    12     5     9 1   
    13     6    15 1   
    14     6    22 1   
    15     6    25 1   
    16     7     8 1   
    17     7    16 1   
    18     7    23 1   
    19     8    17 1   
    20     8    24 1   
    21     9    10 1   
    22     9    11 2   
    23     9    12 2   
    24    10    18 1   
    25    10    19 1   
    26    10    26 1   
@<TRIPOS>SUBSTRUCTURE
     1 0VY         1 TEMP              0 ****  ****    0 ROOT
