@<TRIPOS>MOLECULE
0VY
   26    26     1     0     0
SMALL
bcc


@<TRIPOS>ATOM
      1 C2          -0.3480     0.2410     0.6230 c2         1 0VY       1.047100
      2 C7           3.3260    -0.2530     0.5800 c3         1 0VY      -0.091900
      3 C8           1.9800    -0.1130    -0.1410 c3         1 0VY       0.177800
      4 N1           0.9440     0.0030     0.9060 nh         1 0VY      -0.655600
      5 N3          -0.9040     0.3690    -0.5410 ne         1 0VY      -1.169300
      6 N4          -1.2960     0.3850     1.8330 nz         1 0VY      -0.870600
      7 C5           1.5230    -0.1220     2.2520 c3         1 0VY       0.177800
      8 C6           3.0320    -0.3460     2.0740 c3         1 0VY      -0.091900
      9 S9          -1.3690     0.7560    -1.9100 sy         1 0VY       1.723300
     10 N10         -1.8070    -0.9560    -2.7330 nz         1 0VY      -0.796500
     11 O11         -0.3630     1.1390    -2.7640 o          1 0VY      -0.554800
     12 O12         -2.6260     1.3120    -1.9230 o          1 0VY      -0.554800
     13 H1           3.8610    -1.1680     0.2180 hc         1 0VY       0.108450
     14 H2           1.7580    -1.0220    -0.7670 h1         1 0VY       0.091950
     15 H4          -2.2610     0.5550     1.5140 hn         1 0VY       0.491467
     16 H5           1.0530    -0.9960     2.7840 h1         1 0VY       0.091950
     17 H6           3.6050     0.4290     2.6450 hc         1 0VY       0.108450
     18 H7          -1.2570    -1.0620    -3.5880 hn         1 0VY       0.461133
     19 H8          -2.7910    -0.9500    -3.0060 hn         1 0VY       0.461133
     20 H9           3.9760     0.6320     0.3550 hc         1 0VY       0.108450
     21 H10          1.9580     0.8030    -0.7970 h1         1 0VY       0.091950
     22 H3          -0.9980     1.1810     2.4150 hn         1 0VY       0.491467
     23 H11          1.3330     0.8250     2.8330 h1         1 0VY       0.091950
     24 H12          3.3210    -1.3500     2.4780 hc         1 0VY       0.108450
     25 H43         -1.2790    -0.4720     2.4010 hn         1 0VY       0.491467
     26 H103        -1.6520    -1.7810    -2.1670 hn         1 0VY       0.461133
@<TRIPOS>BOND
     1     1     4 1   
     2     1     5 2   
     3     1     6 1   
     4     2     3 1   
     5     2     8 1   
     6     2    13 1   
     7     2    20 1   
     8     3     4 1   
     9     3    14 1   
    10     3    21 1   
    11     4     7 1   
    12     5     9 1   
    13     6    15 1   
    14     6    22 1   
    15     6    25 1   
    16     7     8 1   
    17     7    16 1   
    18     7    23 1   
    19     8    17 1   
    20     8    24 1   
    21     9    10 1   
    22     9    11 2   
    23     9    12 2   
    24    10    18 1   
    25    10    19 1   
    26    10    26 1   
@<TRIPOS>SUBSTRUCTURE
     1 0VY         1 TEMP              0 ****  ****    0 ROOT
