@<TRIPOS>MOLECULE
molecule
   26    26     1     0     0
SMALL
bcc


@<TRIPOS>ATOM
      1 C2           0.0000     0.0000     0.0000 c2         1 0VY       0.855100
      2 C7           3.5920     0.0000     1.1200 c3         1 0VY      -0.085400
      3 C8           2.5310     0.0000     0.0000 c3         1 0VY       0.181800
      4 N1           1.2120    -0.0160     0.6490 nh         1 0VY      -0.644600
      5 N3          -1.1080    -0.0120     0.6880 ne         1 0VY      -0.888300
      6 N4          -0.0450     0.0340    -1.3730 nz         1 0VY      -0.836600
      7 C5           1.4030    -0.0530     2.1100 c3         1 0VY       0.181800
      8 C6           2.8100     0.5540     2.3410 c3         1 0VY      -0.085400
      9 S9          -2.5680     0.0140    -0.0930 sy         1 0VY       1.419300
     10 N10         -3.7460    -0.0110     1.0700 nz         1 0VY      -0.793500
     11 O11         -2.6590     1.2800    -0.7300 o          1 0VY      -0.553300
     12 O12         -2.6700    -1.2180    -0.7940 o          1 0VY      -0.553300
     13 H1           3.9410    -1.0070     1.3160 hc         1 0VY       0.101950
     14 H2           2.6340     0.8940    -0.6030 h1         1 0VY       0.089450
     15 H4          -0.2290     0.9700    -1.6780 hn         1 0VY       0.497800
     16 H5           1.3720    -1.0750     2.4670 h1         1 0VY       0.089450
     17 H6           2.7720     1.6360     2.3150 hc         1 0VY       0.101950
     18 H7          -4.6460    -0.0070     0.6320 hn         1 0VY       0.514133
     19 H8          -3.6490    -0.8370     1.6260 hn         1 0VY       0.514133
     20 H9           4.4160     0.6560     0.8660 hc         1 0VY       0.101950
     21 H10          2.6480    -0.8830    -0.6170 h1         1 0VY       0.089450
     22 H3           0.8330    -0.2700    -1.7440 hn         1 0VY       0.497800
     23 H11          0.6490     0.5490     2.6030 h1         1 0VY       0.089450
     24 H12          3.2380     0.1940     3.2690 hc         1 0VY       0.101950
     25 H43         -0.7790    -0.5630    -1.6980 hn         1 0VY       0.497800
     26 H103        -3.5480     0.6870     1.7600 hn         1 0VY       0.514133
@<TRIPOS>BOND
     1     8     2 1
     2     8     7 1
     3     2     3 1
     4     7     4 1
     5     3     4 1
     6     4     1 1
     7     1     6 1
     8     1     5 2
     9     5     9 1
    10    10     9 1
    11     9    11 2
    12     9    12 2
    13     2    13 1
    14     3    14 1
    15     6    15 1
    16     7    16 1
    17     8    17 1
    18    10    18 1
    19    10    19 1
    20     2    20 1
    21     3    21 1
    22     6    22 1
    23     7    23 1
    24     8    24 1
    25    25     6 1
    26    26    10 1
@<TRIPOS>SUBSTRUCTURE
     1 0VY         1 TEMP              0 ****  ****    0 ROOT
