@<TRIPOS>MOLECULE
molecule
   27    27     1     0     0
SMALL
bcc


@<TRIPOS>ATOM
      1 C2           0.0000     0.0000     0.0000 c2         1 0VZ       0.953100
      2 C11         -0.0230    -0.3410     3.6370 c          1 0VZ       0.614100
      3 C14          0.5970     0.1170     5.8340 c3         1 0VZ       0.140400
      4 C15          0.3920     1.6080     6.0510 c3         1 0VZ      -0.133100
      5 S1           1.7560     0.0000     0.0000 ss         1 0VZ      -0.000300
      6 N3          -0.8450     0.2060    -0.9710 ne         1 0VZ      -1.195300
      7 N4          -0.5100    -0.2340     1.2670 nu         1 0VZ      -0.814200
      8 C5           0.5010    -0.6780     2.2270 c3         1 0VZ       0.156500
      9 C6           1.7950     0.0000     1.8170 c3         1 0VZ      -0.075300
     10 S7          -0.3320     0.4940    -2.5030 sy         1 0VZ       1.782300
     11 N8          -1.1400    -0.5400    -3.3680 nz         1 0VZ      -0.771500
     12 O9           1.0770     0.2320    -2.6620 o          1 0VZ      -0.585300
     13 O10         -0.7480     1.8540    -2.7640 o          1 0VZ      -0.585300
     14 O12         -1.1890    -0.2570     3.9310 o          1 0VZ      -0.516000
     15 O13          0.9850    -0.1700     4.4740 os         1 0VZ      -0.422900
     16 H1          -0.3280    -0.4030     6.0550 h1         1 0VZ       0.082700
     17 H2           1.3710    -0.2360     6.5050 h1         1 0VZ       0.082700
     18 H3          -0.5700     1.9030     5.6500 hc         1 0VZ       0.060033
     19 H4           1.1770     2.1580     5.5470 hc         1 0VZ       0.060033
     20 H5           0.4230     1.8260     7.1120 hc         1 0VZ       0.060033
     21 H6          -1.4910    -0.2600     1.4610 hn         1 0VZ       0.485800
     22 H7           0.6240    -1.7510     2.1370 h1         1 0VZ       0.136700
     23 H8           2.6460    -0.5660     2.1750 h1         1 0VZ       0.135700
     24 H9           1.8230     1.0160     2.1930 h1         1 0VZ       0.135700
     25 H10         -0.9080    -0.4210    -4.3350 hn         1 0VZ       0.403800
     26 H11         -0.9060    -1.4700    -3.0810 hn         1 0VZ       0.403800
     27 H83         -2.1210    -0.3880    -3.2400 hn         1 0VZ       0.403800
@<TRIPOS>BOND
     1     3    15 1   
     2     3     4 1   
     3    15     2 1   
     4     2     8 1   
     5     2    14 2   
     6     8     9 1   
     7     8     7 1   
     8     9     5 1   
     9     7     1 1   
    10     5     1 1   
    11     1     6 2   
    12     6    10 1   
    13    11    10 1   
    14    12    10 2   
    15    10    13 2   
    16     3    16 1   
    17     3    17 1   
    18     4    18 1   
    19     4    19 1   
    20     4    20 1   
    21     7    21 1   
    22     8    22 1   
    23     9    23 1   
    24     9    24 1   
    25    11    25 1   
    26    11    26 1   
    27    27    11 1   
@<TRIPOS>SUBSTRUCTURE
     1 0VZ         1 TEMP              0 ****  ****    0 ROOT
