@<TRIPOS>MOLECULE
molecule
   27    27     1     0     0
SMALL
bcc


@<TRIPOS>ATOM
      1 C2           0.0000     0.0000     0.0000 c2         1 0VZ       0.849100
      2 C11          0.3200     1.2210     3.2010 c          1 0VZ       0.610100
      3 C14          0.5310     2.4530     5.2290 c3         1 0VZ       0.145400
      4 C15          1.1050     2.2890     6.6380 c3         1 0VZ      -0.096100
      5 S1           1.7670     0.0000     0.0000 ss         1 0VZ      -0.210300
      6 N3          -0.7540     0.0010    -1.0630 ne         1 0VZ      -0.892300
      7 N4          -0.4500    -0.0060     1.2820 nu         1 0VZ      -0.796200
      8 C5           0.5280    -0.0040     2.3470 c3         1 0VZ       0.168500
      9 C6           1.9630     0.0000     1.8090 c3         1 0VZ       0.014700
     10 S7          -0.0630     0.0010    -2.5690 sy         1 0VZ       1.403300
     11 N8          -1.2960     0.0010    -3.6740 nz         1 0VZ      -0.795500
     12 O9           0.5990     1.2510    -2.7060 o          1 0VZ      -0.544800
     13 O10          0.5990    -1.2490    -2.7060 o          1 0VZ      -0.544800
     14 O12         -0.2470     2.1860     2.7450 o          1 0VZ      -0.516000
     15 O13          0.7660     1.2410     4.4660 os         1 0VZ      -0.416900
     16 H1          -0.5340     2.6390     5.2930 h1         1 0VZ       0.058200
     17 H2           1.0150     3.2890     4.7380 h1         1 0VZ       0.058200
     18 H3           2.1690     2.0950     6.5750 hc         1 0VZ       0.057367
     19 H4           0.6150     1.4580     7.1330 hc         1 0VZ       0.057367
     20 H5           0.9360     3.1970     7.2050 hc         1 0VZ       0.057367
     21 H6          -1.4300    -0.0070     1.4840 hn         1 0VZ       0.492800
     22 H7           0.3850    -0.8900     2.9550 h1         1 0VZ       0.115700
     23 H8           2.4890    -0.8910     2.1310 h1         1 0VZ       0.119700
     24 H9           2.4840     0.8930     2.1320 h1         1 0VZ       0.119700
     25 H10         -0.9150     0.0000    -4.5990 hn         1 0VZ       0.494800
     26 H11         -1.8600    -0.8160    -3.5440 hn         1 0VZ       0.494800
     27 H83         -1.8590     0.8180    -3.5450 hn         1 0VZ       0.494800
@<TRIPOS>BOND
     1     3    15 1
     2     3     4 1
     3    15     2 1
     4     2     8 1
     5     2    14 2
     6     8     9 1
     7     8     7 1
     8     9     5 1
     9     7     1 1
    10     5     1 1
    11     1     6 2
    12     6    10 1
    13    11    10 1
    14    12    10 2
    15    10    13 2
    16     3    16 1
    17     3    17 1
    18     4    18 1
    19     4    19 1
    20     4    20 1
    21     7    21 1
    22     8    22 1
    23     9    23 1
    24     9    24 1
    25    11    25 1
    26    11    26 1
    27    27    11 1
@<TRIPOS>SUBSTRUCTURE
     1 0VZ         1 TEMP              0 ****  ****    0 ROOT
