@<TRIPOS>MOLECULE
molecule
   20    21     1     0     0
SMALL
bcc


@<TRIPOS>ATOM
      1 OAC          0.0000     0.0000     0.0000 o          1 0W1      -0.828300
      2 CAH          1.2160     0.0000     0.0000 c          1 0W1       0.906200
      3 OAD          1.8910     0.0000     1.1680 o          1 0W1      -0.828300
      4 CAJ          1.9490    -0.0080    -1.2680 cc         1 0W1      -0.016700
      5 CAE          1.3770    -0.0080    -2.4820 cc         1 0W1      -0.124000
      6 SAG          3.6980    -0.0090    -1.4150 ss         1 0W1      -0.119800
      7 CAL          3.5960    -0.0180    -3.1710 cd         1 0W1      -0.005400
      8 CAK          2.2670    -0.0160    -3.5630 cc         1 0W1      -0.263300
      9 CAI          2.2660    -0.0200    -4.9930 cc         1 0W1       0.362600
     10 CAA          1.0430    -0.0160    -5.8730 c3         1 0W1      -0.105400
     11 NAF          3.4980    -0.0280    -5.4070 nd         1 0W1      -0.525800
     12 NAM          4.3590    -0.0250    -4.3050 na         1 0W1       0.059400
     13 CAB          5.8220    -0.0250    -4.3590 c3         1 0W1       0.078600
     14 H2           0.3020    -0.0030    -2.6170 ha         1 0W1       0.157000
     15 H3           0.4480    -0.8980    -5.6680 hc         1 0W1       0.043033
     16 H4           1.3460    -0.0180    -6.9130 hc         1 0W1       0.043033
     17 H5           0.4550     0.8710    -5.6700 hc         1 0W1       0.043033
     18 H6           6.1460    -0.0290    -5.3930 h1         1 0W1       0.041700
     19 H7           6.2020    -0.9080    -3.8590 h1         1 0W1       0.041700
     20 H8           6.2020     0.8620    -3.8660 h1         1 0W1       0.041700
@<TRIPOS>BOND
     1    10     9 1
     2     1     2 1
     3     9     8 1
     4     9    11 2
     5     5     8 1
     6     5     4 2
     7     8     7 2
     8     2     4 1
     9     2     3 1
    10    11    12 1
    11     4     6 1
    12     7    12 1
    13     7     6 1
    14    12    13 1
    15     5    14 1
    16    10    15 1
    17    10    16 1
    18    10    17 1
    19    13    18 1
    20    13    19 1
    21    13    20 1
@<TRIPOS>SUBSTRUCTURE
     1 0W1         1 TEMP              0 ****  ****    0 ROOT
