@<TRIPOS>MOLECULE
0W1
   20    21     1     0     0
SMALL
bcc


@<TRIPOS>ATOM
      1 OAC          0.1890    -0.3000     0.3120 o          1 0W1      -0.820800
      2 CAH          1.4040     0.0150     0.1850 c          1 0W1       0.933200
      3 OAD          2.1590     0.3680     1.1340 o          1 0W1      -0.820800
      4 CAJ          1.9950    -0.0350    -1.2060 cc         1 0W1      -0.103700
      5 CAE          1.3210    -0.4060    -2.3470 cd         1 0W1      -0.110000
      6 SAG          3.6290     0.3740    -1.4990 ss         1 0W1       0.036200
      7 CAL          3.5010     0.0740    -3.1210 cc         1 0W1      -0.143400
      8 CAK          2.1710    -0.3530    -3.4820 cd         1 0W1      -0.234300
      9 CAI          2.2310    -0.5350    -4.9170 cd         1 0W1       0.360600
     10 CAA          1.0940    -0.9320    -5.7680 c3         1 0W1      -0.117400
     11 NAF          3.4830    -0.2570    -5.3630 nc         1 0W1      -0.547800
     12 NAM          4.2330     0.1930    -4.3190 na         1 0W1       0.114400
     13 CAB          5.6710     0.0640    -4.3200 c3         1 0W1       0.037600
     14 H2           0.2680    -0.6990    -2.3610 ha         1 0W1       0.166000
     15 H3           1.4290    -1.4230    -6.7150 hc         1 0W1       0.041700
     16 H4           0.4890    -0.0280    -6.0330 hc         1 0W1       0.041700
     17 H5           0.4400    -1.6430    -5.2040 hc         1 0W1       0.041700
     18 H6           6.0740     0.7190    -3.5030 h1         1 0W1       0.041700
     19 H7           6.0770     0.4060    -5.3080 h1         1 0W1       0.041700
     20 H8           6.0010    -0.9940    -4.1380 h1         1 0W1       0.041700
@<TRIPOS>BOND
     1     1     2 1   
     2     2     3 1   
     3     2     4 1   
     4     4     5 2   
     5     4     6 1   
     6     5     8 1   
     7     5    14 1   
     8     6     7 1   
     9     7     8 2   
    10     7    12 1   
    11     8     9 1   
    12     9    10 1   
    13     9    11 2   
    14    10    15 1   
    15    10    16 1   
    16    10    17 1   
    17    11    12 1   
    18    12    13 1   
    19    13    18 1   
    20    13    19 1   
    21    13    20 1   
@<TRIPOS>SUBSTRUCTURE
     1 0W1         1 TEMP              0 ****  ****    0 ROOT
