@<TRIPOS>MOLECULE
0W1
   20    21     1     0     0
SMALL
bcc


@<TRIPOS>ATOM
      1 OAC          0.0000     0.0000     0.0000 o          1 0W1      -0.871800
      2 CAH          1.2160     0.0000     0.0000 c          1 0W1       1.001200
      3 OAD          1.8910     0.0000     1.1680 o          1 0W1      -0.871800
      4 CAJ          1.9490    -0.0080    -1.2680 cc         1 0W1       0.048300
      5 CAE          1.3770    -0.0080    -2.4820 cd         1 0W1      -0.095000
      6 SAG          3.6980    -0.0090    -1.4150 ss         1 0W1      -0.242800
      7 CAL          3.5960    -0.0180    -3.1710 cc         1 0W1      -0.127400
      8 CAK          2.2670    -0.0160    -3.5630 cd         1 0W1      -0.265300
      9 CAI          2.2660    -0.0200    -4.9930 cd         1 0W1       0.386600
     10 CAA          1.0430    -0.0160    -5.8730 c3         1 0W1      -0.002400
     11 NAF          3.4980    -0.0280    -5.4070 nc         1 0W1      -0.661800
     12 NAM          4.3590    -0.0250    -4.3050 na         1 0W1       0.488400
     13 CAB          5.8220    -0.0250    -4.3590 c3         1 0W1       0.031600
     14 H2           0.3020    -0.0030    -2.6170 ha         1 0W1       0.131000
     15 H3           1.3460    -0.0200    -6.9130 hc         1 0W1       0.004700
     16 H4           0.4470    -0.8970    -5.6670 hc         1 0W1       0.004700
     17 H5           0.4570     0.8720    -5.6710 hc         1 0W1       0.004700
     18 H6           6.1460    -0.0340    -5.3930 h1         1 0W1       0.012033
     19 H7           6.2020    -0.9050    -3.8550 h1         1 0W1       0.012033
     20 H8           6.2020     0.8640    -3.8700 h1         1 0W1       0.012033
@<TRIPOS>BOND
     1     1     2 1   
     2     2     3 1   
     3     2     4 1   
     4     4     5 2   
     5     4     6 1   
     6     5     8 1   
     7     5    14 1   
     8     6     7 1   
     9     7     8 2   
    10     7    12 1   
    11     8     9 1   
    12     9    10 1   
    13     9    11 2   
    14    10    15 1   
    15    10    16 1   
    16    10    17 1   
    17    11    12 1   
    18    12    13 1   
    19    13    18 1   
    20    13    19 1   
    21    13    20 1   
@<TRIPOS>SUBSTRUCTURE
     1 0W1         1 TEMP              0 ****  ****    0 ROOT
