@<TRIPOS>MOLECULE
0W2
   71    76     1     0     0
SMALL
bcc


@<TRIPOS>ATOM
      1 C5           1.5070     0.0000     0.0000 c3         1 0W2      -0.034300
      2 C6           3.2180     0.4930     1.6630 c          1 0W2       0.580100
      3 N1          -2.0660     0.2310    -1.2900 nh         1 0W2      -0.311000
      4 C2          -1.1580     1.5640    -3.0770 c3         1 0W2      -0.038400
      5 N3           1.9960     0.0000     1.3800 ns         1 0W2      -0.205900
      6 C4           0.0000     0.0000     0.0000 c          1 0W2       0.586100
      7 C11         -2.9440    -0.4730    -0.4600 ca         1 0W2       0.031600
      8 C12         -3.6170    -1.5890    -0.9450 ca         1 0W2       0.099900
      9 C13         -4.4840    -2.2820    -0.1200 ca         1 0W2      -0.135000
     10 C14         -4.6820    -1.8650     1.1840 ca         1 0W2      -0.072000
     11 C15         -4.0140    -0.7560     1.6680 ca         1 0W2      -0.110000
     12 C16         -3.1400    -0.0610     0.8510 ca         1 0W2      -0.046000
     13 C31          4.9970     1.0300     3.2400 c3         1 0W2       0.047700
     14 N4           3.6670     0.4940     2.9330 ns         1 0W2      -0.216900
     15 O1           3.9150     0.9380     0.7710 o          1 0W2      -0.720100
     16 C66          2.0160    -1.2490    -0.7210 c3         1 0W2      -0.011100
     17 O2          -0.6060    -0.2520     1.0200 o          1 0W2      -0.664100
     18 N2          -0.6740     0.2810    -1.1330 n          1 0W2      -0.041200
     19 F1          -3.4240    -1.9960    -2.2180 f          1 0W2      -0.129900
     20 C1          -2.4640     1.0230    -2.4620 c3         1 0W2       0.224800
     21 C21         -3.3520     2.1660    -2.0430 ca         1 0W2      -0.111300
     22 C26         -3.2770     2.6640    -0.7560 ca         1 0W2      -0.091000
     23 C25         -4.0920     3.7130    -0.3710 ca         1 0W2      -0.097000
     24 C24         -4.9810     4.2640    -1.2730 ca         1 0W2      -0.089000
     25 C23         -5.0580     3.7670    -2.5610 ca         1 0W2      -0.097000
     26 C22         -4.2380     2.7220    -2.9490 ca         1 0W2      -0.023600
     27 Cl1         -4.3320     2.0980    -4.5660 cl         1 0W2      -0.024400
     28 C3          -0.0730     0.6910    -2.4140 c3         1 0W2       0.045000
     29 C36          6.0480    -0.0600     3.0220 c3         1 0W2      -0.056200
     30 C37          5.7520    -1.2460     3.9430 c3         1 0W2      -0.014650
     31 C38          5.7910    -0.7820     5.4000 c3         1 0W2      -0.043200
     32 C40          4.7390     0.3080     5.6180 c3         1 0W2      -0.014650
     33 C32          5.0350     1.4930     4.6970 c3         1 0W2      -0.056200
     34 C33          6.4230     2.0530     5.0170 c3         1 0W2      -0.014650
     35 C34          7.4750     0.9630     4.8000 c3         1 0W2      -0.043200
     36 C39          7.1790    -0.2230     5.7210 c3         1 0W2      -0.014400
     37 C35          7.4360     0.4990     3.3420 c3         1 0W2      -0.014650
     38 H1           1.8680     0.8840    -0.5110 h1         1 0W2       0.064700
     39 H3          -1.0180     2.6070    -2.8190 hc         1 0W2       0.037700
     40 H4           1.4180    -0.3570     2.1160 hn         1 0W2       0.192500
     41 H5          -5.0090    -3.1520    -0.4960 ha         1 0W2       0.118000
     42 H6          -5.3630    -2.4090     1.8270 ha         1 0W2       0.104000
     43 H7          -4.1690    -0.4340     2.6910 ha         1 0W2       0.106000
     44 H8          -2.6170     0.8080     1.2320 ha         1 0W2       0.128000
     45 H9           5.2060     1.8690     2.5880 h1         1 0W2       0.058700
     46 H10          3.0730     0.1780     3.6740 hn         1 0W2       0.177500
     47 H11          2.5870    -1.8580    -0.0300 hc         1 0W2       0.016033
     48 H12          1.1740    -1.8200    -1.0940 hc         1 0W2       0.016033
     49 H13          2.6480    -0.9550    -1.5500 hc         1 0W2       0.016033
     50 H14         -2.9760     0.3920    -3.1780 h1         1 0W2       0.051700
     51 H15         -2.5800     2.2320    -0.0480 ha         1 0W2       0.127000
     52 H16         -4.0330     4.1030     0.6380 ha         1 0W2       0.106000
     53 H17         -5.6210     5.0840    -0.9710 ha         1 0W2       0.106000
     54 H18         -5.7540     4.2020    -3.2680 ha         1 0W2       0.115000
     55 H19          0.1400    -0.1770    -3.0260 h1         1 0W2       0.032200
     56 H20          0.8250     1.2720    -2.2410 h1         1 0W2       0.032200
     57 H21          6.0200    -0.3880     1.9900 hc         1 0W2       0.037200
     58 H22          6.4970    -2.0170     3.7900 hc         1 0W2       0.016450
     59 H23          4.7700    -1.6420     3.7170 hc         1 0W2       0.016450
     60 H24          5.5810    -1.6220     6.0520 hc         1 0W2       0.023200
     61 H25          4.7680     0.6360     6.6500 hc         1 0W2       0.016450
     62 H26          3.7570    -0.0880     5.3920 hc         1 0W2       0.016450
     63 H27          4.2910     2.2650     4.8500 hc         1 0W2       0.037200
     64 H28          6.6330     2.8930     4.3660 hc         1 0W2       0.016450
     65 H29          6.4510     2.3810     6.0490 hc         1 0W2       0.016450
     66 H30          8.4570     1.3600     5.0270 hc         1 0W2       0.023200
     67 H31          7.9230    -0.9940     5.5670 hc         1 0W2       0.015200
     68 H32          7.2060     0.1060     6.7530 hc         1 0W2       0.015200
     69 H33          8.1810    -0.2730     3.1890 hc         1 0W2       0.016450
     70 H34          7.6470     1.3390     2.6900 hc         1 0W2       0.016450
     71 H2          -1.1550     1.4240    -4.1510 hc         1 0W2       0.037700
@<TRIPOS>BOND
     1     1     5 1   
     2     1     6 1   
     3     1    16 1   
     4     1    38 1   
     5     2     5 1   
     6     2    14 1   
     7     2    15 2   
     8     3     7 1   
     9     3    18 1   
    10     3    20 1   
    11     4    20 1   
    12     4    28 1   
    13     4    39 1   
    14     4    71 1   
    15     5    40 1   
    16     6    17 2   
    17     6    18 1   
    18     7     8 ar  
    19     7    12 ar  
    20     8     9 ar  
    21     8    19 1   
    22     9    10 ar  
    23     9    41 1   
    24    10    11 ar  
    25    10    42 1   
    26    11    12 ar  
    27    11    43 1   
    28    12    44 1   
    29    13    14 1   
    30    13    29 1   
    31    13    33 1   
    32    13    45 1   
    33    14    46 1   
    34    16    47 1   
    35    16    48 1   
    36    16    49 1   
    37    18    28 1   
    38    20    21 1   
    39    20    50 1   
    40    21    22 ar  
    41    21    26 ar  
    42    22    23 ar  
    43    22    51 1   
    44    23    24 ar  
    45    23    52 1   
    46    24    25 ar  
    47    24    53 1   
    48    25    26 ar  
    49    25    54 1   
    50    26    27 1   
    51    28    55 1   
    52    28    56 1   
    53    29    30 1   
    54    29    37 1   
    55    29    57 1   
    56    30    31 1   
    57    30    58 1   
    58    30    59 1   
    59    31    32 1   
    60    31    36 1   
    61    31    60 1   
    62    32    33 1   
    63    32    61 1   
    64    32    62 1   
    65    33    34 1   
    66    33    63 1   
    67    34    35 1   
    68    34    64 1   
    69    34    65 1   
    70    35    36 1   
    71    35    37 1   
    72    35    66 1   
    73    36    67 1   
    74    36    68 1   
    75    37    69 1   
    76    37    70 1   
@<TRIPOS>SUBSTRUCTURE
     1 0W2         1 TEMP              0 ****  ****    0 ROOT
