@<TRIPOS>MOLECULE
0W2
   73    78     1     0     0
SMALL
bcc


@<TRIPOS>ATOM
      1 C5           2.4690     1.7120     0.2960 c3         1 0W2       0.065500
      2 C6           2.2570     2.5360     2.6490 c          1 0W2       0.512100
      3 N1          -1.2910     1.9900     0.0350 nh         1 0W2      -0.325000
      4 C2          -0.9890     3.1400    -2.1290 c3         1 0W2      -0.100400
      5 N3           3.0330     1.6520     1.7190 ny         1 0W2      -0.651800
      6 C4           0.9860     1.2520     0.3870 c          1 0W2       0.629100
      7 C11         -1.9670     0.7380     0.3100 ca         1 0W2      -0.012400
      8 C12         -2.0930     0.3450     1.6720 ca         1 0W2       0.163900
      9 C13         -2.8510    -0.7870     2.0180 ca         1 0W2      -0.156000
     10 C14         -3.4490    -1.5520     1.0220 ca         1 0W2      -0.065000
     11 C15         -3.2870    -1.2060    -0.3210 ca         1 0W2      -0.117000
     12 C16         -2.5530    -0.0790    -0.6740 ca         1 0W2      -0.099000
     13 C31          1.7110     1.7000     4.9220 c3         1 0W2       0.132500
     14 N4           1.2000     1.9460     3.5030 ny         1 0W2      -0.651800
     15 O1           2.5230     3.7290     2.6860 o          1 0W2      -0.328100
     16 C66          3.2500     0.7980    -0.6250 c3         1 0W2      -0.141100
     17 O2           0.7510     0.3630     1.2510 o          1 0W2      -0.672100
     18 N2           0.0550     1.8850    -0.3690 n          1 0W2      -0.283200
     19 F1          -1.4740     1.0470     2.6600 f          1 0W2      -0.185900
     20 C1          -2.0010     2.8370    -0.9970 c3         1 0W2       0.204800
     21 C21         -2.5130     4.0900    -0.3450 ca         1 0W2      -0.101300
     22 C26         -1.6220     5.1150    -0.0010 ca         1 0W2      -0.122000
     23 C25         -2.0800     6.3020     0.5640 ca         1 0W2      -0.129000
     24 C24         -3.4450     6.4790     0.8000 ca         1 0W2      -0.091000
     25 C23         -4.3430     5.4650     0.4780 ca         1 0W2      -0.110000
     26 C22         -3.8810     4.2690    -0.0870 ca         1 0W2       0.037400
     27 Cl1         -5.0240     3.0660    -0.4500 cl         1 0W2      -0.062400
     28 C3           0.3590     2.6250    -1.6080 c3         1 0W2       0.072000
     29 C36          2.8700     0.6890     4.9550 c3         1 0W2      -0.077700
     30 C37          2.4000    -0.7020     4.5450 c3         1 0W2      -0.085650
     31 C38          1.2890    -1.1690     5.4790 c3         1 0W2      -0.069200
     32 C40          0.1120    -0.2030     5.4050 c3         1 0W2      -0.085650
     33 C32          0.5560     1.1950     5.8180 c3         1 0W2      -0.077700
     34 C33          1.1040     1.1560     7.2470 c3         1 0W2      -0.085650
     35 C34          2.2730     0.1820     7.3280 c3         1 0W2      -0.069200
     36 C39          1.8150    -1.2110     6.9110 c3         1 0W2      -0.081400
     37 C35          3.3860     0.6500     6.3980 c3         1 0W2      -0.085650
     38 H1           2.5620     2.7910    -0.0300 hx         1 0W2       0.135700
     39 H4           4.0130     1.9760     1.6990 hn         1 0W2       0.499800
     40 H5          -2.9670    -1.0560     3.0790 ha         1 0W2       0.161000
     41 H6          -4.0490    -2.4350     1.2970 ha         1 0W2       0.170000
     42 H7          -3.7480    -1.8260    -1.1070 ha         1 0W2       0.169000
     43 H8          -2.4400     0.1730    -1.7420 ha         1 0W2       0.150000
     44 H9           2.0650     2.7080     5.2970 hx         1 0W2       0.117700
     45 H10          0.4100     2.6180     3.5460 hn         1 0W2       0.518800
     46 H11          2.8250     0.9110    -1.6590 hc         1 0W2       0.103700
     47 H12          3.1480    -0.2770    -0.3290 hc         1 0W2       0.103700
     48 H13          4.3330     1.0740    -0.6690 hc         1 0W2       0.103700
     49 H14         -2.8760     2.2690    -1.4340 h1         1 0W2       0.109700
     50 H15         -0.5470     4.9850    -0.1960 ha         1 0W2       0.110000
     51 H16         -1.3710     7.1070     0.8110 ha         1 0W2       0.147000
     52 H17         -3.8140     7.4210     1.2350 ha         1 0W2       0.162000
     53 H18         -5.4220     5.6050     0.6620 ha         1 0W2       0.172000
     54 H19          0.8520     1.9330    -2.3440 h1         1 0W2       0.067700
     55 H20          1.0510     3.4810    -1.3780 h1         1 0W2       0.067700
     56 H21          3.7050     1.0370     4.2880 hc         1 0W2       0.050700
     57 H22          3.2640    -1.4160     4.6120 hc         1 0W2       0.071200
     58 H23          2.0380    -0.7110     3.4830 hc         1 0W2       0.071200
     59 H24          0.9520    -2.1950     5.1710 hc         1 0W2       0.099200
     60 H25         -0.6940    -0.5450     6.1100 hc         1 0W2       0.071200
     61 H26         -0.3360    -0.2020     4.3770 hc         1 0W2       0.071200
     62 H27         -0.3110     1.9080     5.7720 hc         1 0W2       0.050700
     63 H28          1.4250     2.1790     7.5700 hc         1 0W2       0.071200
     64 H29          0.2810     0.8240     7.9340 hc         1 0W2       0.071200
     65 H30          2.6600     0.1520     8.3830 hc         1 0W2       0.099200
     66 H31          1.0080    -1.5700     7.6010 hc         1 0W2       0.076200
     67 H32          2.6700    -1.9330     6.9840 hc         1 0W2       0.076200
     68 H33          3.7500     1.6640     6.7040 hc         1 0W2       0.071200
     69 H34          4.2530    -0.0590     6.4510 hc         1 0W2       0.071200
     70 H2          -0.9440     4.2330    -2.3550 hc         1 0W2       0.099200
     71 H321         2.9980     0.6630     2.0310 hn         1 0W2       0.499800
     72 H42          0.8120     1.0500     3.1140 hn         1 0W2       0.518800
     73 H3          -1.2830     2.6010    -3.0640 hc         1 0W2       0.099200
@<TRIPOS>BOND
     1     1     5 1   
     2     1     6 1   
     3     1    16 1   
     4     1    38 1   
     5     2     5 1   
     6     2    14 1   
     7     2    15 2   
     8     3     7 1   
     9     3    18 1   
    10     3    20 1   
    11     4    20 1   
    12     4    28 1   
    13     4    70 1   
    14     4    73 1   
    15     5    39 1   
    16     5    71 1   
    17     6    17 2   
    18     6    18 1   
    19     7     8 ar  
    20     7    12 ar  
    21     8     9 ar  
    22     8    19 1   
    23     9    10 ar  
    24     9    40 1   
    25    10    11 ar  
    26    10    41 1   
    27    11    12 ar  
    28    11    42 1   
    29    12    43 1   
    30    13    14 1   
    31    13    29 1   
    32    13    33 1   
    33    13    44 1   
    34    14    45 1   
    35    14    72 1   
    36    16    46 1   
    37    16    47 1   
    38    16    48 1   
    39    18    28 1   
    40    20    21 1   
    41    20    49 1   
    42    21    22 ar  
    43    21    26 ar  
    44    22    23 ar  
    45    22    50 1   
    46    23    24 ar  
    47    23    51 1   
    48    24    25 ar  
    49    24    52 1   
    50    25    26 ar  
    51    25    53 1   
    52    26    27 1   
    53    28    54 1   
    54    28    55 1   
    55    29    30 1   
    56    29    37 1   
    57    29    56 1   
    58    30    31 1   
    59    30    57 1   
    60    30    58 1   
    61    31    32 1   
    62    31    36 1   
    63    31    59 1   
    64    32    33 1   
    65    32    60 1   
    66    32    61 1   
    67    33    34 1   
    68    33    62 1   
    69    34    35 1   
    70    34    63 1   
    71    34    64 1   
    72    35    36 1   
    73    35    37 1   
    74    35    65 1   
    75    36    66 1   
    76    36    67 1   
    77    37    68 1   
    78    37    69 1   
@<TRIPOS>SUBSTRUCTURE
     1 0W2         1 TEMP              0 ****  ****    0 ROOT
