@<TRIPOS>MOLECULE
0W5
   36    39     1     0     0
SMALL
bcc


@<TRIPOS>ATOM
      1 O1           0.0000     0.0000     0.0000 o          1 0W5      -0.599000
      2 C2           1.2160     0.0000     0.0000 c3         1 0W5       0.466000
      3 C27          1.9250     0.0000     1.2280 c2         1 0W5      -0.436000
      4 C28          1.2470    -0.0010     2.4000 c3         1 0W5      -0.012000
      5 C29          1.9790    -0.0020     3.6670 c3         1 0W5      -0.079000
      6 C30          1.3100    -0.0040     4.8230 c2         1 0W5      -0.640000
      7 C31          2.0640    -0.0040     6.1280 DU         1 0W5       0.013000
      8 C32          1.6010     1.1770     6.9840 c3         1 0W5      -0.108000
      9 C33          2.3650     1.1770     8.3090 c3         1 0W5      -0.116000
     10 C34          1.9030     2.3570     9.1650 c3         1 0W5      -0.113000
     11 C35          2.6670     2.3560    10.4910 c3         1 0W5      -0.107000
     12 C36          2.2050     3.5370    11.3470 c3         1 0W5      -0.095000
     13 C37          0.7340     3.3460    11.7270 c3         1 0W5      -0.114000
     14 C38          3.0550     3.6100    12.6170 c3         1 0W5      -0.114000
     15 H28          1.4610     0.8750     0.7900 DU         1 0W5       0.208000
     16 H29          1.7120     0.8740     2.8390 DU         1 0W5       0.242500
     17 H30          1.5150    -0.8770     3.2280 DU         1 0W5       0.242500
     18 H31          1.7740    -0.8790     5.2610 DU         1 0W5       0.162000
     19 H32          3.1260     0.0860     5.9320 ha         1 0W5       0.027500
     20 H33          1.8720    -0.9300     6.6560 ha         1 0W5       0.027500
     21 H34          0.5400     1.0870     7.1800 hc         1 0W5       0.061000
     22 H35          1.7940     2.1030     6.4560 hc         1 0W5       0.061000
     23 H36          2.1730     0.2500     8.8370 hc         1 0W5       0.047000
     24 H37          3.4270     1.2660     8.1140 hc         1 0W5       0.047000
     25 H38          2.0970     3.2830     8.6380 hc         1 0W5       0.057000
     26 H39          0.8410     2.2680     9.3610 hc         1 0W5       0.057000
     27 H40          3.7290     2.4460    10.2960 hc         1 0W5       0.053000
     28 H41          2.4740     1.4300    11.0180 hc         1 0W5       0.053000
     29 H42          2.3160     4.4560    10.7850 hc         1 0W5       0.065000
     30 H43          0.5240     3.8890    12.6400 hc         1 0W5       0.040333
     31 H44          0.5350     2.2920    11.8790 hc         1 0W5       0.040333
     32 H45          0.1040     3.7210    10.9300 hc         1 0W5       0.040333
     33 H46          2.9320     2.6970    13.1870 hc         1 0W5       0.040333
     34 H47          4.0970     3.7300    12.3480 hc         1 0W5       0.040333
     35 H48          2.7370     4.4550    13.2160 hc         1 0W5       0.040333
     36 OXT          1.8910    -0.0040    -1.1680 o          1 0W5      -0.599000
@<TRIPOS>BOND
     1     1     2 1   
     2     2     3 1   
     3     2    15 1   
     4     2    36 1   
     5     3     4 1   
     6     3    15 1   
     7     4     5 1   
     8     4    16 1   
     9     4    17 1   
    10     5     6 1   
    11     5    16 1   
    12     5    17 1   
    13     6     7 1   
    14     6    18 1   
    15     7     8 1   
    16     7    18 1   
    17     7    19 1   
    18     7    20 1   
    19     8     9 1   
    20     8    21 1   
    21     8    22 1   
    22     9    10 1   
    23     9    23 1   
    24     9    24 1   
    25    10    11 1   
    26    10    25 1   
    27    10    26 1   
    28    11    12 1   
    29    11    27 1   
    30    11    28 1   
    31    12    13 1   
    32    12    14 1   
    33    12    29 1   
    34    13    30 1   
    35    13    31 1   
    36    13    32 1   
    37    14    33 1   
    38    14    34 1   
    39    14    35 1   
@<TRIPOS>SUBSTRUCTURE
     1 0W5         1 TEMP              0 ****  ****    0 ROOT
