@<TRIPOS>MOLECULE
molecule
   36    35     1     0     0
SMALL
bcc


@<TRIPOS>ATOM
      1 O1           0.0000     0.0000     0.0000 o          1 0W5      -0.845300
      2 C2           1.2160     0.0000     0.0000 c          1 0W5       0.860800
      3 C27          1.9250     0.0000     1.2280 ce         1 0W5      -0.139200
      4 C28          1.2470    -0.0010     2.4000 ce         1 0W5      -0.197000
      5 C29          1.9790    -0.0020     3.6670 ce         1 0W5      -0.092000
      6 C30          1.3100    -0.0040     4.8230 c2         1 0W5      -0.240200
      7 C31          2.0640    -0.0040     6.1280 c3         1 0W5      -0.036200
      8 C32          1.6010     1.1770     6.9840 c3         1 0W5      -0.077400
      9 C33          2.3650     1.1770     8.3090 c3         1 0W5      -0.084400
     10 C34          1.9030     2.3570     9.1650 c3         1 0W5      -0.083400
     11 C35          2.6670     2.3560    10.4910 c3         1 0W5      -0.077400
     12 C36          2.2050     3.5370    11.3470 c3         1 0W5      -0.077700
     13 C37          0.7340     3.3460    11.7270 c3         1 0W5      -0.087100
     14 C38          3.0550     3.6100    12.6170 c3         1 0W5      -0.087100
     15 H28          3.0080     0.0000     1.2290 ha         1 0W5       0.101000
     16 H29          0.1640    -0.0020     2.3990 ha         1 0W5       0.149000
     17 H30          3.0620    -0.0010     3.6680 ha         1 0W5       0.108000
     18 H31          0.2270    -0.0040     4.8220 ha         1 0W5       0.125000
     19 H32          3.1260     0.0860     5.9320 hc         1 0W5       0.034200
     20 H33          1.8720    -0.9300     6.6560 hc         1 0W5       0.034200
     21 H34          1.7940     2.1030     6.4560 hc         1 0W5       0.042700
     22 H35          0.5400     1.0870     7.1800 hc         1 0W5       0.042700
     23 H36          2.1730     0.2500     8.8370 hc         1 0W5       0.036700
     24 H37          3.4270     1.2660     8.1140 hc         1 0W5       0.036700
     25 H38          0.8410     2.2680     9.3610 hc         1 0W5       0.041700
     26 H39          2.0970     3.2830     8.6380 hc         1 0W5       0.041700
     27 H40          3.7290     2.4460    10.2960 hc         1 0W5       0.039700
     28 H41          2.4740     1.4300    11.0180 hc         1 0W5       0.039700
     29 H42          2.3160     4.4560    10.7850 hc         1 0W5       0.049700
     30 H43          0.1040     3.7210    10.9300 hc         1 0W5       0.031200
     31 H44          0.5240     3.8890    12.6400 hc         1 0W5       0.031200
     32 H45          0.5350     2.2920    11.8790 hc         1 0W5       0.031200
     33 H46          2.9320     2.6970    13.1870 hc         1 0W5       0.031200
     34 H47          2.7370     4.4550    13.2160 hc         1 0W5       0.031200
     35 H48          4.0970     3.7300    12.3480 hc         1 0W5       0.031200
     36 OXT          1.8910    -0.0040    -1.1680 o          1 0W5      -0.845300
@<TRIPOS>BOND
     1    14    12 1   
     2    13    12 1   
     3    12    11 1   
     4    11    10 1   
     5    10     9 1   
     6     9     8 1   
     7     7     8 1   
     8     7     6 1   
     9     5     6 2   
    10     5     4 1   
    11     3     4 2   
    12     3     2 1   
    13     2     1 1   
    14     3    15 1   
    15     4    16 1   
    16     5    17 1   
    17     6    18 1   
    18     7    19 1   
    19     7    20 1   
    20     8    21 1   
    21     8    22 1   
    22     9    23 1   
    23     9    24 1   
    24    10    25 1   
    25    10    26 1   
    26    11    27 1   
    27    11    28 1   
    28    12    29 1   
    29    13    30 1   
    30    13    31 1   
    31    13    32 1   
    32    14    33 1   
    33    14    34 1   
    34    14    35 1   
    35     2    36 1   
@<TRIPOS>SUBSTRUCTURE
     1 0W5         1 TEMP              0 ****  ****    0 ROOT
