@<TRIPOS>MOLECULE
0W7
   41    43     1     0     0
SMALL
bcc


@<TRIPOS>ATOM
      1 O17          0.0000     0.0000     0.0000 o          1 0W7      -0.576100
      2 C14          1.2120     0.0000     0.0000 c          1 0W7       0.553100
      3 N15          1.8860     0.0000     1.1680 ns         1 0W7      -0.045100
      4 C16          1.1880     0.0910     2.3780 ca         1 0W7      -0.091400
      5 C19         -0.0530    -0.5170     2.5130 ca         1 0W7      -0.119000
      6 C20         -0.7380    -0.4260     3.7090 ca         1 0W7      -0.083000
      7 C23          1.7390     0.7860     3.4470 ca         1 0W7      -0.119000
      8 C22          1.0510     0.8680     4.6420 ca         1 0W7      -0.083000
      9 C21         -0.1890     0.2700     4.7700 ca         1 0W7      -0.112000
     10 C13          1.9660    -0.0080    -1.3040 c3         1 0W7      -0.128700
     11 C2           0.9880    -0.0140    -2.4500 cc         1 0W7       0.292900
     12 N3           1.4560    -0.0200    -3.7140 ns         1 0W7       0.021600
     13 C4           0.6000    -0.0270    -4.7570 c          1 0W7       0.609700
     14 O18          1.0180    -0.0330    -5.9050 o          1 0W7      -0.703500
     15 C5          -0.7770    -0.0250    -4.4990 cc         1 0W7      -0.402200
     16 N1          -0.2910    -0.0170    -2.1930 nd         1 0W7      -0.519300
     17 C6          -1.2020    -0.0180    -3.1810 cd         1 0W7       0.273600
     18 N7          -2.5490    -0.0210    -2.8840 nh         1 0W7      -0.355400
     19 C8          -3.0680     0.6980    -1.7100 c3         1 0W7       0.133800
     20 C12         -3.5100    -0.7390    -3.7350 c3         1 0W7       0.133800
     21 C11         -4.3770    -1.6320    -2.8400 c3         1 0W7       0.196900
     22 O10         -4.9310    -0.8430    -1.7840 os         1 0W7      -0.409600
     23 C9          -3.9560    -0.2610    -0.9090 c3         1 0W7       0.196900
     24 H1           2.8820    -0.0950     1.1700 hn         1 0W7       0.163500
     25 H2          -0.4820    -1.0630     1.6820 ha         1 0W7       0.124000
     26 H3          -1.7080    -0.8970     3.8140 ha         1 0W7       0.103500
     27 H4           2.7100     1.2550     3.3470 ha         1 0W7       0.124000
     28 H5           1.4780     1.4120     5.4760 ha         1 0W7       0.103500
     29 H6          -0.7280     0.3390     5.7080 ha         1 0W7       0.103000
     30 H7           2.5880    -0.8930    -1.3560 hc         1 0W7       0.039700
     31 H8           2.5890     0.8760    -1.3670 hc         1 0W7       0.039700
     32 H9           2.4430    -0.0210    -3.8790 hn         1 0W7       0.173500
     33 H10         -1.4930    -0.0280    -5.3120 ha         1 0W7       0.153000
     34 H11         -3.6530     1.5500    -2.0350 h1         1 0W7       0.036450
     35 H12         -2.2420     1.0300    -1.0920 h1         1 0W7       0.036450
     36 H13         -4.1390    -0.0260    -4.2550 h1         1 0W7       0.036450
     37 H14         -2.9760    -1.3520    -4.4510 h1         1 0W7       0.036450
     38 H15         -5.1790    -2.0620    -3.4270 h1         1 0W7       0.015700
     39 H16         -3.7670    -2.4210    -2.4180 h1         1 0W7       0.015700
     40 H17         -3.3440    -1.0450    -0.4780 h1         1 0W7       0.015700
     41 H18         -4.4590     0.2860    -0.1210 h1         1 0W7       0.015700
@<TRIPOS>BOND
     1     1     2 2   
     2     2     3 1   
     3     2    10 1   
     4     3     4 1   
     5     3    24 1   
     6     4     5 ar  
     7     4     7 ar  
     8     5     6 ar  
     9     5    25 1   
    10     6     9 ar  
    11     6    26 1   
    12     7     8 ar  
    13     7    27 1   
    14     8     9 ar  
    15     8    28 1   
    16     9    29 1   
    17    10    11 1   
    18    10    30 1   
    19    10    31 1   
    20    11    12 1   
    21    11    16 2   
    22    12    13 1   
    23    12    32 1   
    24    13    14 2   
    25    13    15 1   
    26    15    17 2   
    27    15    33 1   
    28    16    17 1   
    29    17    18 1   
    30    18    19 1   
    31    18    20 1   
    32    19    23 1   
    33    19    34 1   
    34    19    35 1   
    35    20    21 1   
    36    20    36 1   
    37    20    37 1   
    38    21    22 1   
    39    21    38 1   
    40    21    39 1   
    41    22    23 1   
    42    23    40 1   
    43    23    41 1   
@<TRIPOS>SUBSTRUCTURE
     1 0W7         1 TEMP              0 ****  ****    0 ROOT
