@<TRIPOS>MOLECULE
molecule
   41    43     1     0     0
SMALL
bcc


@<TRIPOS>ATOM
      1 O17          0.0000     0.0000     0.0000 o          1 0W7      -0.530100
      2 C14          1.2120     0.0000     0.0000 c          1 0W7       0.655100
      3 N15          1.8860     0.0000     1.1680 ns         1 0W7      -0.485100
      4 C16          1.1880     0.0910     2.3780 ca         1 0W7       0.052600
      5 C19         -0.0530    -0.5170     2.5130 ca         1 0W7      -0.144000
      6 C20         -0.7380    -0.4260     3.7090 ca         1 0W7      -0.112500
      7 C23          1.7390     0.7860     3.4470 ca         1 0W7      -0.144000
      8 C22          1.0510     0.8680     4.6420 ca         1 0W7      -0.112500
      9 C21         -0.1890     0.2700     4.7700 ca         1 0W7      -0.142000
     10 C13          1.9660    -0.0080    -1.3040 c3         1 0W7      -0.194700
     11 C2           0.9880    -0.0140    -2.4500 cc         1 0W7       0.507900
     12 N3           1.4560    -0.0200    -3.7140 ns         1 0W7      -0.455400
     13 C4           0.6000    -0.0270    -4.7570 c          1 0W7       0.701700
     14 O18          1.0180    -0.0330    -5.9050 o          1 0W7      -0.658500
     15 C5          -0.7770    -0.0250    -4.4990 cc         1 0W7      -0.404200
     16 N1          -0.2910    -0.0170    -2.1930 nd         1 0W7      -0.639300
     17 C6          -1.2020    -0.0180    -3.1810 cd         1 0W7       0.443600
     18 N7          -2.5490    -0.0210    -2.8840 nh         1 0W7      -0.716400
     19 C8          -3.0680     0.6980    -1.7100 c3         1 0W7       0.205800
     20 C12         -3.5100    -0.7390    -3.7350 c3         1 0W7       0.205800
     21 C11         -4.3770    -1.6320    -2.8400 c3         1 0W7       0.119900
     22 O10         -4.9310    -0.8430    -1.7840 os         1 0W7      -0.424600
     23 C9          -3.9560    -0.2610    -0.9090 c3         1 0W7       0.119900
     24 H1           2.8820    -0.0950     1.1700 hn         1 0W7       0.320500
     25 H2          -0.4820    -1.0630     1.6820 ha         1 0W7       0.146000
     26 H3          -1.7080    -0.8970     3.8140 ha         1 0W7       0.133000
     27 H4           2.7100     1.2550     3.3470 ha         1 0W7       0.146000
     28 H5           1.4780     1.4120     5.4760 ha         1 0W7       0.133000
     29 H6          -0.7280     0.3390     5.7080 ha         1 0W7       0.131000
     30 H7           2.5880    -0.8930    -1.3560 hc         1 0W7       0.082200
     31 H8           2.5890     0.8760    -1.3670 hc         1 0W7       0.082200
     32 H9           2.4430    -0.0210    -3.8790 hn         1 0W7       0.329500
     33 H10         -1.4930    -0.0280    -5.3120 ha         1 0W7       0.168000
     34 H11         -3.6530     1.5500    -2.0350 h1         1 0W7       0.063950
     35 H12         -2.2420     1.0300    -1.0920 h1         1 0W7       0.063950
     36 H13         -4.1390    -0.0260    -4.2550 h1         1 0W7       0.063950
     37 H14         -2.9760    -1.3520    -4.4510 h1         1 0W7       0.063950
     38 H15         -5.1790    -2.0620    -3.4270 h1         1 0W7       0.055700
     39 H16         -3.7670    -2.4210    -2.4180 h1         1 0W7       0.055700
     40 H17         -3.3440    -1.0450    -0.4780 h1         1 0W7       0.055700
     41 H18         -4.4590     0.2860    -0.1210 h1         1 0W7       0.055700
@<TRIPOS>BOND
     1     8     9 ar
     2     8     7 ar
     3     9     6 ar
     4     7     4 ar
     5     6     5 ar
     6     4     5 ar
     7     4     3 1
     8     1     2 2
     9     3     2 1
    10     2    10 1
    11    10    11 1
    12    11    12 1
    13    11    16 2
    14    12    13 1
    15    16    17 1
    16    13    14 2
    17    13    15 1
    18    17    15 2
    19    17    18 1
    20    19    18 1
    21    19    23 1
    22    18    20 1
    23    23    22 1
    24    20    21 1
    25    22    21 1
    26     3    24 1
    27     5    25 1
    28     6    26 1
    29     7    27 1
    30     8    28 1
    31     9    29 1
    32    10    30 1
    33    10    31 1
    34    12    32 1
    35    15    33 1
    36    19    34 1
    37    19    35 1
    38    20    36 1
    39    20    37 1
    40    21    38 1
    41    21    39 1
    42    23    40 1
    43    23    41 1
@<TRIPOS>SUBSTRUCTURE
     1 0W7         1 TEMP              0 ****  ****    0 ROOT
