@<TRIPOS>MOLECULE
0W7
   41    43     1     0     0
SMALL
bcc


@<TRIPOS>ATOM
      1 O17          0.1500     1.0190    -0.1170 o          1 0W7      -0.583100
      2 C14          1.1860     0.3360    -0.0330 c          1 0W7       0.665100
      3 N15          1.6610    -0.2270     1.1350 ns         1 0W7      -0.460100
      4 C16          1.0650    -0.1740     2.4090 ca         1 0W7       0.061600
      5 C19          1.6330    -0.9570     3.4440 ca         1 0W7      -0.164500
      6 C20          1.0890    -0.9270     4.7230 ca         1 0W7      -0.105000
      7 C23         -0.0570     0.6280     2.7030 ca         1 0W7      -0.164500
      8 C22         -0.5850     0.6390     3.9920 ca         1 0W7      -0.105000
      9 C21         -0.0210    -0.1320     5.0050 ca         1 0W7      -0.152000
     10 C13          2.0340     0.1040    -1.2810 c3         1 0W7      -0.209700
     11 C2           2.0840    -1.3760    -1.6190 cc         1 0W7       0.512900
     12 N3           1.0170    -1.8970    -2.3330 ns         1 0W7      -0.479400
     13 C4           1.0160    -3.2660    -2.7020 c          1 0W7       0.707700
     14 O18          0.0500    -3.6940    -3.3580 o          1 0W7      -0.627500
     15 C5           2.1670    -4.0400    -2.2760 cc         1 0W7      -0.378200
     16 N1           3.1350    -2.0770    -1.2120 nd         1 0W7      -0.682300
     17 C6           3.1810    -3.4540    -1.5250 cd         1 0W7       0.399600
     18 N7           4.2440    -4.2100    -0.9870 nh         1 0W7      -0.624400
     19 C8           5.4830    -3.5090    -0.6830 c3         1 0W7       0.160300
     20 C12          4.4090    -5.5500    -1.5270 c3         1 0W7       0.160300
     21 C11          5.5160    -6.3540    -0.8330 c3         1 0W7       0.119400
     22 O10          6.7260    -5.6180    -0.7230 os         1 0W7      -0.407600
     23 C9           6.5320    -4.4030    -0.0110 c3         1 0W7       0.119400
     24 H1           2.4880    -0.7820     1.0720 hn         1 0W7       0.332500
     25 H2           2.5070    -1.5950     3.2470 ha         1 0W7       0.151000
     26 H3           1.5410    -1.5410     5.5160 ha         1 0W7       0.134500
     27 H4          -0.5280     1.2490     1.9230 ha         1 0W7       0.151000
     28 H5          -1.4620     1.2700     4.2050 ha         1 0W7       0.134500
     29 H6          -0.4460    -0.1150     6.0180 ha         1 0W7       0.134000
     30 H7           1.5720     0.6840    -2.1250 hc         1 0W7       0.104200
     31 H8           3.0700     0.5050    -1.1190 hc         1 0W7       0.104200
     32 H9           0.2450    -1.3190    -2.5850 hn         1 0W7       0.345500
     33 H10          2.1550    -5.0920    -2.5850 ha         1 0W7       0.171000
     34 H11          5.2590    -2.6610     0.0240 h1         1 0W7       0.058450
     35 H12          5.9290    -3.0770    -1.6250 h1         1 0W7       0.058450
     36 H13          4.6270    -5.5080    -2.6330 h1         1 0W7       0.058450
     37 H14          3.4440    -6.1130    -1.3760 h1         1 0W7       0.058450
     38 H15          5.1820    -6.6850     0.1860 h1         1 0W7       0.060200
     39 H16          5.7840    -7.2450    -1.4600 h1         1 0W7       0.060200
     40 H17          6.2420    -4.6280     1.0490 h1         1 0W7       0.060200
     41 H18          7.5330    -3.8970    -0.0380 h1         1 0W7       0.060200
@<TRIPOS>BOND
     1     1     2 2   
     2     2     3 1   
     3     2    10 1   
     4     3     4 1   
     5     3    24 1   
     6     4     5 ar  
     7     4     7 ar  
     8     5     6 ar  
     9     5    25 1   
    10     6     9 ar  
    11     6    26 1   
    12     7     8 ar  
    13     7    27 1   
    14     8     9 ar  
    15     8    28 1   
    16     9    29 1   
    17    10    11 1   
    18    10    30 1   
    19    10    31 1   
    20    11    12 1   
    21    11    16 2   
    22    12    13 1   
    23    12    32 1   
    24    13    14 2   
    25    13    15 1   
    26    15    17 2   
    27    15    33 1   
    28    16    17 1   
    29    17    18 1   
    30    18    19 1   
    31    18    20 1   
    32    19    23 1   
    33    19    34 1   
    34    19    35 1   
    35    20    21 1   
    36    20    36 1   
    37    20    37 1   
    38    21    22 1   
    39    21    38 1   
    40    21    39 1   
    41    22    23 1   
    42    23    40 1   
    43    23    41 1   
@<TRIPOS>SUBSTRUCTURE
     1 0W7         1 TEMP              0 ****  ****    0 ROOT
