@<TRIPOS>MOLECULE
0W8
   22    23     1     0     0
SMALL
bcc


@<TRIPOS>ATOM
      1 O           -0.0080    -0.1540     0.0050 o          1 0W8      -0.619500
      2 C8           1.2320    -0.0990     0.0390 c          1 0W8       0.771500
      3 N            2.0560    -0.2390     1.2140 n          1 0W8      -0.330000
      4 C1           1.5590     0.0800     2.5240 c3         1 0W8       0.092000
      5 C            1.6100     1.5450     2.9290 c3         1 0W8      -0.129100
      6 N1           2.0840    -0.0090    -1.1070 ns         1 0W8      -0.436100
      7 C7           3.4090     0.1180    -0.6420 ca         1 0W8      -0.008400
      8 C2           3.3940    -0.0180     0.8020 ca         1 0W8      -0.011400
      9 C6           4.6060     0.2930    -1.3240 ca         1 0W8      -0.129000
     10 C5           5.7870     0.3310    -0.5740 ca         1 0W8      -0.127000
     11 C4           5.7760     0.2000     0.8120 ca         1 0W8      -0.130000
     12 C3           4.5820     0.0250     1.5220 ca         1 0W8      -0.122000
     13 H3           2.1680    -0.5250     3.2570 h1         1 0W8       0.070200
     14 H4           0.4890    -0.2790     2.5620 h1         1 0W8       0.070200
     15 H2           1.2250     1.6410     3.9730 hc         1 0W8       0.047033
     16 H            0.9740     2.1700     2.2580 hc         1 0W8       0.047033
     17 H1           2.6550     1.9360     2.8960 hc         1 0W8       0.047033
     18 H9           1.7670     0.3830    -1.9570 hn         1 0W8       0.340500
     19 H5           4.6320     0.3930    -2.4170 ha         1 0W8       0.142000
     20 H6           6.7450     0.4670    -1.0990 ha         1 0W8       0.136000
     21 H7           6.7240     0.2340     1.3690 ha         1 0W8       0.136000
     22 H8           4.5880    -0.0770     2.6160 ha         1 0W8       0.142000
@<TRIPOS>BOND
     1     1     2 2   
     2     2     3 1   
     3     2     6 1   
     4     3     4 1   
     5     3     8 1   
     6     4     5 1   
     7     4    13 1   
     8     4    14 1   
     9     5    15 1   
    10     5    16 1   
    11     5    17 1   
    12     6     7 1   
    13     6    18 1   
    14     7     8 ar  
    15     7     9 ar  
    16     8    12 ar  
    17     9    10 ar  
    18     9    19 1   
    19    10    11 ar  
    20    10    20 1   
    21    11    12 ar  
    22    11    21 1   
    23    12    22 1   
@<TRIPOS>SUBSTRUCTURE
     1 0W8         1 TEMP              0 ****  ****    0 ROOT
