@<TRIPOS>MOLECULE
0W8
   22    23     1     0     0
SMALL
bcc


@<TRIPOS>ATOM
      1 O            0.0000     0.0000     0.0000 o          1 0W8      -0.719500
      2 C8           1.2170     0.0000     0.0000 c          1 0W8       0.569500
      3 N            1.9920     0.0000     1.1000 n          1 0W8       0.049000
      4 C1           1.5150    -0.0010     2.4850 c3         1 0W8       0.055000
      5 C            1.3490    -1.4450     2.9670 c3         1 0W8      -0.019100
      6 N1           1.9920    -0.0050    -1.1010 ns         1 0W8       0.018900
      7 C7           3.3260    -0.0020    -0.6990 ca         1 0W8      -0.166400
      8 C2           3.3260     0.0010     0.6990 ca         1 0W8      -0.146400
      9 C6           4.5280    -0.0050    -1.3890 ca         1 0W8      -0.083000
     10 C5           5.7210    -0.0010    -0.6920 ca         1 0W8      -0.099000
     11 C4           5.7210     0.0050     0.6920 ca         1 0W8      -0.098000
     12 C3           4.5280     0.0030     1.3880 ca         1 0W8      -0.085000
     13 H3           0.5610     0.5090     2.5390 h1         1 0W8       0.033200
     14 H4           2.2340     0.5090     3.1150 h1         1 0W8       0.033200
     15 H2           2.1990    -2.0330     2.6450 hc         1 0W8       0.013367
     16 H            0.4410    -1.8620     2.5480 hc         1 0W8       0.013367
     17 H1           1.2880    -1.4600     4.0480 hc         1 0W8       0.013367
     18 H9           1.6660    -0.0120    -2.0480 hn         1 0W8       0.190500
     19 H5           4.5320    -0.0100    -2.4730 ha         1 0W8       0.106000
     20 H6           6.6610     0.0000    -1.2310 ha         1 0W8       0.106000
     21 H7           6.6600     0.0080     1.2310 ha         1 0W8       0.106000
     22 H8           4.5320     0.0080     2.4720 ha         1 0W8       0.107000
@<TRIPOS>BOND
     1     1     2 2   
     2     2     3 1   
     3     2     6 1   
     4     3     4 1   
     5     3     8 1   
     6     4     5 1   
     7     4    13 1   
     8     4    14 1   
     9     5    15 1   
    10     5    16 1   
    11     5    17 1   
    12     6     7 1   
    13     6    18 1   
    14     7     8 ar  
    15     7     9 ar  
    16     8    12 ar  
    17     9    10 ar  
    18     9    19 1   
    19    10    11 ar  
    20    10    20 1   
    21    11    12 ar  
    22    11    21 1   
    23    12    22 1   
@<TRIPOS>SUBSTRUCTURE
     1 0W8         1 TEMP              0 ****  ****    0 ROOT
