@<TRIPOS>MOLECULE
0WA
   30    32     1     0     0
SMALL
bcc


@<TRIPOS>ATOM
      1 C4           0.0000     0.0000     0.0000 ca         1 0WA      -0.128000
      2 C5           1.3840     0.0000     0.0000 ca         1 0WA       0.124900
      3 C7           2.0790     0.0000     1.1980 ca         1 0WA      -0.179000
      4 C8           1.3870    -0.0000     2.4000 ca         1 0WA      -0.009400
      5 C10          3.3220     0.6220     3.7000 cc         1 0WA       0.561300
      6 C13          5.4630     1.8780     3.4620 cc         1 0WA      -0.146400
      7 C15          6.2560     1.2730     5.7310 ca         1 0WA      -0.097500
      8 C17          8.3420     1.9990     6.6520 ca         1 0WA       0.400200
      9 C20          6.0190     0.5970     6.9320 ca         1 0WA      -0.205300
     10 C2          -0.0060    -0.0000     2.3980 ca         1 0WA       0.088100
     11 C3          -0.6950     0.0060     1.1960 ca         1 0WA      -0.108000
     12 F6           2.0580     0.0000    -1.1700 f          1 0WA      -0.123900
     13 N9           2.0870    -0.0010     3.6120 nu         1 0WA      -0.242300
     14 N11          4.1130     0.5760     4.7260 nd         1 0WA      -0.639000
     15 C12          5.2650     1.2380     4.6300 cd         1 0WA       0.429800
     16 S14          4.0640     1.5910     2.4300 ss         1 0WA      -0.331300
     17 C16          7.4510     1.9880     5.6000 ca         1 0WA      -0.205300
     18 N18          8.0840     1.3380     7.7650 nb         1 0WA      -0.582000
     19 C19          6.9670     0.6550     7.9310 ca         1 0WA       0.400200
     20 H1          -0.5400     0.0020    -0.9390 ha         1 0WA       0.122000
     21 H2           3.1630     0.0000     1.1960 ha         1 0WA       0.162000
     22 H3           6.3350     2.4640     3.2000 h4         1 0WA       0.167000
     23 H4           9.2710     2.5470     6.5600 h4         1 0WA      -0.020400
     24 H5           5.1040     0.0340     7.0750 ha         1 0WA       0.123500
     25 H6          -1.2580    -0.7520     3.6070 ho         1 0WA       0.405000
     26 H7          -1.7780     0.0060     1.1930 ha         1 0WA       0.117000
     27 H8           1.7080    -0.4750     4.4080 hn         1 0WA       0.300800
     28 H9           7.6710     2.5290     4.6880 ha         1 0WA       0.123500
     29 H10          6.7940     0.1310     8.8630 h4         1 0WA      -0.020400
     30 O1          -0.6890    -0.0010     3.5740 oh         1 0WA      -0.486100
@<TRIPOS>BOND
     1     1     2 ar  
     2     1    11 ar  
     3     1    20 1   
     4     2     3 ar  
     5     2    12 1   
     6     3     4 ar  
     7     3    21 1   
     8     4    10 ar  
     9     4    13 1   
    10     5    13 1   
    11     5    14 2   
    12     5    16 1   
    13     6    15 2   
    14     6    16 1   
    15     6    22 1   
    16     7     9 ar  
    17     7    15 1   
    18     7    17 ar  
    19     8    17 ar  
    20     8    18 ar  
    21     8    23 1   
    22     9    19 ar  
    23     9    24 1   
    24    10    11 ar  
    25    10    30 1   
    26    11    26 1   
    27    13    27 1   
    28    14    15 1   
    29    17    28 1   
    30    18    19 ar  
    31    19    29 1   
    32    25    30 1   
@<TRIPOS>SUBSTRUCTURE
     1 0WA         1 TEMP              0 ****  ****    0 ROOT
