@<TRIPOS>MOLECULE
0WA
   30    32     1     0     0
SMALL
bcc


@<TRIPOS>ATOM
      1 C4           0.1830    -0.3510    -0.0090 ca         1 0WA      -0.145000
      2 C5           1.4710    -0.8710     0.2010 ca         1 0WA       0.113900
      3 C7           2.1000    -0.7620     1.4530 ca         1 0WA      -0.133000
      4 C8           1.4460    -0.1260     2.5210 ca         1 0WA       0.124600
      5 C10          3.3520     0.3090     3.9740 cc         1 0WA       0.597300
      6 C13          5.5820     0.5820     4.8860 cc         1 0WA      -0.259400
      7 C15          6.4690     1.7560     2.8410 ca         1 0WA      -0.080500
      8 C17          8.8070     2.1190     2.3540 ca         1 0WA       0.388200
      9 C20          6.1750     2.7020     1.8470 ca         1 0WA      -0.224300
     10 C2           0.1460     0.4050     2.2880 ca         1 0WA       0.072100
     11 C3          -0.4710     0.2830     1.0400 ca         1 0WA      -0.168000
     12 F6           2.1200    -1.4900    -0.8160 f          1 0WA      -0.137900
     13 N9           2.0180    -0.1050     3.8190 nu         1 0WA      -0.668300
     14 N11          4.1260     0.9520     3.0830 nd         1 0WA      -0.655000
     15 C12          5.4120     1.0970     3.6020 cd         1 0WA       0.404800
     16 S14          4.1840    -0.1160     5.4540 ss         1 0WA      -0.074300
     17 C16          7.8160     1.4550     3.0960 ca         1 0WA      -0.224300
     18 N18          8.5400     3.0330     1.4010 nb         1 0WA      -0.660000
     19 C19          7.2430     3.3070     1.1610 ca         1 0WA       0.388200
     20 H1          -0.2930    -0.4460    -0.9950 ha         1 0WA       0.153000
     21 H2           3.1120    -1.1780     1.5810 ha         1 0WA       0.168000
     22 H3           6.5050     0.6350     5.4600 h4         1 0WA       0.186000
     23 H4           9.8770     1.9070     2.5290 h4         1 0WA       0.022600
     24 H5           5.1380     2.9670     1.6010 ha         1 0WA       0.152000
     25 H6          -1.3430     1.3380     3.0480 ho         1 0WA       0.429000
     26 H7          -1.4790     0.6980     0.8860 ha         1 0WA       0.140000
     27 H8           1.4130     0.3400     4.4910 hn         1 0WA       0.428800
     28 H9           8.0960     0.7110     3.8530 ha         1 0WA       0.152000
     29 H10          7.0490     4.0570     0.3730 h4         1 0WA       0.022600
     30 O1          -0.4740     1.0360     3.3490 oh         1 0WA      -0.513100
@<TRIPOS>BOND
     1     1     2 ar  
     2     1    11 ar  
     3     1    20 1   
     4     2     3 ar  
     5     2    12 1   
     6     3     4 ar  
     7     3    21 1   
     8     4    10 ar  
     9     4    13 1   
    10     5    13 1   
    11     5    14 2   
    12     5    16 1   
    13     6    15 2   
    14     6    16 1   
    15     6    22 1   
    16     7     9 ar  
    17     7    15 1   
    18     7    17 ar  
    19     8    17 ar  
    20     8    18 ar  
    21     8    23 1   
    22     9    19 ar  
    23     9    24 1   
    24    10    11 ar  
    25    10    30 1   
    26    11    26 1   
    27    13    27 1   
    28    14    15 1   
    29    17    28 1   
    30    18    19 ar  
    31    19    29 1   
    32    25    30 1   
@<TRIPOS>SUBSTRUCTURE
     1 0WA         1 TEMP              0 ****  ****    0 ROOT
