@<TRIPOS>MOLECULE
molecule
   30    32     1     0     0
SMALL
bcc


@<TRIPOS>ATOM
      1 C4           0.0000     0.0000     0.0000 ca         1 0WA      -0.172000
      2 C5           1.3840     0.0000     0.0000 ca         1 0WA       0.156900
      3 C7           2.0790     0.0000     1.1980 ca         1 0WA      -0.211000
      4 C8           1.3870    -0.0000     2.4000 ca         1 0WA       0.170600
      5 C10          3.3220     0.6220     3.7000 cc         1 0WA       0.736300
      6 C13          5.4630     1.8780     3.4620 cc         1 0WA      -0.200400
      7 C15          6.2560     1.2730     5.7310 ca         1 0WA      -0.083500
      8 C17          8.3420     1.9990     6.6520 ca         1 0WA       0.415700
      9 C20          6.0190     0.5970     6.9320 ca         1 0WA      -0.233800
     10 C2          -0.0060    -0.0000     2.3980 ca         1 0WA       0.062100
     11 C3          -0.6950     0.0060     1.1960 ca         1 0WA      -0.124000
     12 F6           2.0580     0.0000    -1.1700 f          1 0WA      -0.131900
     13 N9           2.0870    -0.0010     3.6120 nu         1 0WA      -0.735300
     14 N11          4.1130     0.5760     4.7260 nd         1 0WA      -0.746000
     15 C12          5.2650     1.2380     4.6300 cd         1 0WA       0.456800
     16 S14          4.0640     1.5910     2.4300 ss         1 0WA      -0.240300
     17 C16          7.4510     1.9880     5.6000 ca         1 0WA      -0.233800
     18 N18          8.0840     1.3380     7.7650 nb         1 0WA      -0.691000
     19 C19          6.9670     0.6550     7.9310 ca         1 0WA       0.415700
     20 H1          -0.5400     0.0020    -0.9390 ha         1 0WA       0.152000
     21 H2           3.1630     0.0000     1.1960 ha         1 0WA       0.170000
     22 H3           6.3350     2.4640     3.2000 h4         1 0WA       0.184000
     23 H4           9.2710     2.5470     6.5600 h4         1 0WA       0.023600
     24 H5           5.1040     0.0340     7.0750 ha         1 0WA       0.147500
     25 H6          -1.2580    -0.7520     3.6070 ho         1 0WA       0.420000
     26 H7          -1.7780     0.0060     1.1930 ha         1 0WA       0.149000
     27 H8           1.7080    -0.4750     4.4080 hn         1 0WA       0.478800
     28 H9           7.6710     2.5290     4.6880 ha         1 0WA       0.147500
     29 H10          6.7940     0.1310     8.8630 h4         1 0WA       0.023600
     30 O1          -0.6890    -0.0010     3.5740 oh         1 0WA      -0.506100
@<TRIPOS>BOND
     1     6    16 1
     2     6    15 2
     3    17     8 ar
     4    17     7 ar
     5     8    18 ar
     6    16     5 1
     7    15     7 1
     8    15    14 1
     9     7     9 ar
    10    18    19 ar
    11     5    14 2
    12     5    13 1
    13     9    19 ar
    14    13     4 1
    15     4     3 ar
    16     4    10 ar
    17    30    10 1
    18     3     2 ar
    19    10    11 ar
    20     2    12 1
    21     2     1 ar
    22    11     1 ar
    23     1    20 1
    24     3    21 1
    25     6    22 1
    26     8    23 1
    27     9    24 1
    28    30    25 1
    29    11    26 1
    30    13    27 1
    31    17    28 1
    32    19    29 1
@<TRIPOS>SUBSTRUCTURE
     1 0WA         1 TEMP              0 ****  ****    0 ROOT
