@<TRIPOS>MOLECULE
0WB
   32    34     1     0     0
SMALL
bcc


@<TRIPOS>ATOM
      1 C7           0.0000     0.0000     0.0000 ca         1 0WB      -0.174000
      2 C2           0.0060     0.0120     2.4060 ca         1 0WB       0.127100
      3 C10         -2.7880     0.6160     0.1710 cc         1 0WB       0.562300
      4 C4           2.0770     0.0000     1.1980 ca         1 0WB      -0.118000
      5 O1          -0.6690     0.0240     3.5860 oh         1 0WB      -0.579100
      6 C3           1.3910     0.0120     2.3980 ca         1 0WB      -0.088000
      7 C5           1.3840     0.0000     0.0000 ca         1 0WB       0.117900
      8 F6           2.0590    -0.0020    -1.1700 f          1 0WB      -0.123900
      9 C8          -0.6940     0.0060     1.2010 ca         1 0WB      -0.020400
     10 N9          -2.0940     0.0060     1.2030 nu         1 0WB      -0.245300
     11 N11         -4.0740     0.5700     0.0020 nd         1 0WB      -0.641000
     12 C12         -4.5660     1.2200    -1.0520 cd         1 0WB       0.447800
     13 C13         -3.6560     1.8490    -1.8150 cc         1 0WB      -0.137400
     14 S14         -2.0630     1.5810    -1.1120 ss         1 0WB      -0.366300
     15 C15         -6.0160     1.2470    -1.3600 ca         1 0WB      -0.101500
     16 C16         -6.9160     0.5780    -0.5370 ca         1 0WB      -0.041000
     17 C17         -8.2790     0.6080    -0.8330 ca         1 0WB      -0.002000
     18 C18         -8.7300     1.3090    -1.9540 ca         1 0WB      -0.059000
     19 C19         -7.8300     1.9700    -2.7660 ca         1 0WB      -0.114000
     20 C20         -6.4800     1.9460    -2.4730 ca         1 0WB      -0.088000
     21 C21         -9.2120    -0.0770     0.0080 cg         1 0WB       0.233800
     22 N22         -9.9520    -0.6360     0.6640 n1         1 0WB      -0.380800
     23 H1          -0.4610    -0.2140    -0.9570 ha         1 0WB       0.156000
     24 H2           3.1550     0.1050     1.1540 ha         1 0WB       0.121000
     25 H3          -0.9660     0.7030     4.1680 ho         1 0WB       0.448000
     26 H4           1.7370     0.1760     3.4120 ha         1 0WB       0.122000
     27 H5          -2.5720    -0.3050     2.0260 hn         1 0WB       0.302800
     28 H6          -3.6430     2.7490    -2.4180 h4         1 0WB       0.167000
     29 H7          -6.6410    -0.3270    -0.0090 ha         1 0WB       0.130000
     30 H8          -9.7950     1.1590    -2.0880 ha         1 0WB       0.113000
     31 H9          -7.9940     2.2700    -3.7940 ha         1 0WB       0.111000
     32 H10         -6.0080     2.3980    -3.3370 ha         1 0WB       0.118000
@<TRIPOS>BOND
     1     1     7 ar  
     2     1     9 ar  
     3     1    23 1   
     4     2     5 1   
     5     2     6 ar  
     6     2     9 ar  
     7     3    10 1   
     8     3    11 2   
     9     3    14 1   
    10     4     6 ar  
    11     4     7 ar  
    12     4    24 1   
    13     5    25 1   
    14     6    26 1   
    15     7     8 1   
    16     9    10 1   
    17    10    27 1   
    18    11    12 1   
    19    12    13 2   
    20    12    15 1   
    21    13    14 1   
    22    13    28 1   
    23    15    16 ar  
    24    15    20 ar  
    25    16    17 ar  
    26    16    29 1   
    27    17    18 ar  
    28    17    21 1   
    29    18    19 ar  
    30    18    30 1   
    31    19    20 ar  
    32    19    31 1   
    33    20    32 1   
    34    21    22 3   
@<TRIPOS>SUBSTRUCTURE
     1 0WB         1 TEMP              0 ****  ****    0 ROOT
