@<TRIPOS>MOLECULE
molecule
   32    34     1     0     0
SMALL
bcc


@<TRIPOS>ATOM
      1 C7           0.0000     0.0000     0.0000 ca         1 0WB      -0.216000
      2 C2           0.0060     0.0120     2.4060 ca         1 0WB       0.118100
      3 C10         -2.7880     0.6160     0.1710 cc         1 0WB       0.738300
      4 C4           2.0770     0.0000     1.1980 ca         1 0WB      -0.166000
      5 O1          -0.6690     0.0240     3.5860 oh         1 0WB      -0.624100
      6 C3           1.3910     0.0120     2.3980 ca         1 0WB      -0.105000
      7 C5           1.3840     0.0000     0.0000 ca         1 0WB       0.151900
      8 F6           2.0590    -0.0020    -1.1700 f          1 0WB      -0.131900
      9 C8          -0.6940     0.0060     1.2010 ca         1 0WB       0.156600
     10 N9          -2.0940     0.0060     1.2030 nu         1 0WB      -0.734300
     11 N11         -4.0740     0.5700     0.0020 nd         1 0WB      -0.744000
     12 C12         -4.5660     1.2200    -1.0520 cd         1 0WB       0.474800
     13 C13         -3.6560     1.8490    -1.8150 cc         1 0WB      -0.192400
     14 S14         -2.0630     1.5810    -1.1120 ss         1 0WB      -0.278300
     15 C15         -6.0160     1.2470    -1.3600 ca         1 0WB      -0.101500
     16 C16         -6.9160     0.5780    -0.5370 ca         1 0WB      -0.054000
     17 C17         -8.2790     0.6080    -0.8330 ca         1 0WB      -0.045000
     18 C18         -8.7300     1.3090    -1.9540 ca         1 0WB      -0.080000
     19 C19         -7.8300     1.9700    -2.7660 ca         1 0WB      -0.144000
     20 C20         -6.4800     1.9460    -2.4730 ca         1 0WB      -0.105000
     21 C21         -9.2120    -0.0770     0.0080 cg         1 0WB       0.240800
     22 N22         -9.9520    -0.6360     0.6640 n1         1 0WB      -0.361800
     23 H1          -0.4610    -0.2140    -0.9570 ha         1 0WB       0.171000
     24 H2           3.1550     0.1050     1.1540 ha         1 0WB       0.152000
     25 H3          -0.9660     0.7030     4.1680 ho         1 0WB       0.475000
     26 H4           1.7370     0.1760     3.4120 ha         1 0WB       0.154000
     27 H5          -2.5720    -0.3050     2.0260 hn         1 0WB       0.479800
     28 H6          -3.6430     2.7490    -2.4180 h4         1 0WB       0.184000
     29 H7          -6.6410    -0.3270    -0.0090 ha         1 0WB       0.161000
     30 H8          -9.7950     1.1590    -2.0880 ha         1 0WB       0.142000
     31 H9          -7.9940     2.2700    -3.7940 ha         1 0WB       0.139000
     32 H10         -6.0080     2.3980    -3.3370 ha         1 0WB       0.144000
@<TRIPOS>BOND
     1    20    19 ar  
     2    20    15 ar  
     3    19    18 ar  
     4    13    14 1   
     5    13    12 2   
     6    14     3 1   
     7    15    12 1   
     8    15    16 ar  
     9    18    17 ar  
    10    12    11 1   
    11     3    11 2   
    12     3    10 1   
    13    16    17 ar  
    14    17    21 1   
    15    10     9 1   
    16    21    22 3   
    17     9     1 ar  
    18     9     2 ar  
    19     5     2 1   
    20     1     7 ar  
    21     2     6 ar  
    22     7     8 1   
    23     7     4 ar  
    24     6     4 ar  
    25     1    23 1   
    26     4    24 1   
    27     5    25 1   
    28     6    26 1   
    29    10    27 1   
    30    13    28 1   
    31    16    29 1   
    32    18    30 1   
    33    19    31 1   
    34    20    32 1   
@<TRIPOS>SUBSTRUCTURE
     1 0WB         1 TEMP              0 ****  ****    0 ROOT
