@<TRIPOS>MOLECULE
0WB
   32    34     1     0     0
SMALL
bcc


@<TRIPOS>ATOM
      1 C7          -0.2780     0.9050     0.2000 ca         1 0WB      -0.132000
      2 C2           0.0820    -0.4720     2.1630 ca         1 0WB       0.073100
      3 C10         -3.0830    -0.1770     0.4340 cc         1 0WB       0.600300
      4 C4           1.9910     0.3830     0.9500 ca         1 0WB      -0.143000
      5 O1          -0.4730    -1.2000     3.1970 oh         1 0WB      -0.513100
      6 C3           1.4660    -0.3530     2.0050 ca         1 0WB      -0.167000
      7 C5           1.1150     1.0100     0.0480 ca         1 0WB       0.113900
      8 F6           1.6170     1.7310    -0.9850 f          1 0WB      -0.137900
      9 C8          -0.8190     0.1650     1.2640 ca         1 0WB       0.123600
     10 N9          -2.2190     0.1380     1.4960 nu         1 0WB      -0.668300
     11 N11         -2.7640    -0.7040    -0.7610 nd         1 0WB      -0.659000
     12 C12         -3.9050    -0.7740    -1.5590 cd         1 0WB       0.410800
     13 C13         -5.0720    -0.3210    -0.9470 cc         1 0WB      -0.264400
     14 S14         -4.7780     0.2300     0.5950 ss         1 0WB      -0.077300
     15 C15         -3.8490    -1.3020    -2.9200 ca         1 0WB      -0.121500
     16 C16         -2.8920    -2.2600    -3.2790 ca         1 0WB      -0.057000
     17 C17         -2.8660    -2.7620    -4.5860 ca         1 0WB      -0.024000
     18 C18         -3.7900    -2.3080    -5.5390 ca         1 0WB      -0.086000
     19 C19         -4.7350    -1.3510    -5.1770 ca         1 0WB      -0.139000
     20 C20         -4.7670    -0.8470    -3.8790 ca         1 0WB      -0.096000
     21 C21         -1.8980    -3.7380    -4.9490 cg         1 0WB       0.235800
     22 N22         -1.1070    -4.5380    -5.2470 n1         1 0WB      -0.363800
     23 H1          -0.9350     1.4050    -0.5290 ha         1 0WB       0.167000
     24 H2           3.0780     0.4760     0.8150 ha         1 0WB       0.153000
     25 H3           0.2510    -1.5790     3.7160 ho         1 0WB       0.430000
     26 H4           2.1420    -0.8520     2.7150 ha         1 0WB       0.141000
     27 H5          -2.4540    -0.3770     2.3280 hn         1 0WB       0.429800
     28 H6          -6.0600    -0.3330    -1.4030 h4         1 0WB       0.184000
     29 H7          -2.1580    -2.6190    -2.5390 ha         1 0WB       0.164000
     30 H8          -3.7650    -2.7050    -6.5650 ha         1 0WB       0.146000
     31 H9          -5.4580    -0.9880    -5.9230 ha         1 0WB       0.141000
     32 H10         -5.5110    -0.0840    -3.6060 ha         1 0WB       0.139000
@<TRIPOS>BOND
     1     1     7 ar  
     2     1     9 ar  
     3     1    23 1   
     4     2     5 1   
     5     2     6 ar  
     6     2     9 ar  
     7     3    10 1   
     8     3    11 2   
     9     3    14 1   
    10     4     6 ar  
    11     4     7 ar  
    12     4    24 1   
    13     5    25 1   
    14     6    26 1   
    15     7     8 1   
    16     9    10 1   
    17    10    27 1   
    18    11    12 1   
    19    12    13 2   
    20    12    15 1   
    21    13    14 1   
    22    13    28 1   
    23    15    16 ar  
    24    15    20 ar  
    25    16    17 ar  
    26    16    29 1   
    27    17    18 ar  
    28    17    21 1   
    29    18    19 ar  
    30    18    30 1   
    31    19    20 ar  
    32    19    31 1   
    33    20    32 1   
    34    21    22 3   
@<TRIPOS>SUBSTRUCTURE
     1 0WB         1 TEMP              0 ****  ****    0 ROOT
