@<TRIPOS>MOLECULE
0WC
   43    46     1     0     0
SMALL
bcc


@<TRIPOS>ATOM
      1 C4           1.4670    -0.3220    -0.4890 c1         1 0WC      -0.163100
      2 C5           2.5850    -0.2910    -0.0620 cg         1 0WC      -0.069000
      3 C6           3.9010    -0.2580     0.4420 ca         1 0WC       0.028000
      4 C7           4.3000     0.7800     1.2950 ca         1 0WC      -0.120000
      5 C8           5.6020     0.8240     1.8030 ca         1 0WC      -0.104000
      6 C10          7.9250    -0.3480     1.8380 c3         1 0WC      -0.048100
      7 N12          7.1890    -2.1080     0.2900 nh         1 0WC      -0.593700
      8 C13          6.0940    -1.2380     0.5940 ca         1 0WC       0.112600
      9 C15          6.9940    -3.5180     0.3190 ca         1 0WC       0.693200
     10 C17          5.6630    -5.4070     0.7500 ca         1 0WC       0.894900
     11 C20          7.7080    -5.7560    -0.2760 ca         1 0WC       0.485200
     12 C21          7.9890    -4.3750    -0.2470 ca         1 0WC      -0.300200
     13 C26         -2.3270    -1.9400     1.5970 cc         1 0WC      -0.259400
     14 C1          -0.4550     1.0630    -1.1400 c3         1 0WC      -0.094100
     15 C2           0.1100    -0.3560    -1.0080 c3         1 0WC       0.233600
     16 O3           0.0710    -0.8980    -2.3250 oh         1 0WC      -0.576800
     17 C9           6.4920    -0.1750     1.4590 ca         1 0WC      -0.109300
     18 C11          8.3640    -1.6010     1.0380 c3         1 0WC       0.177800
     19 C14          4.8010    -1.2810     0.0780 ca         1 0WC      -0.085000
     20 N16          5.8360    -4.0350     0.8190 nb         1 0WC      -0.786000
     21 N18          4.5170    -5.9380     1.3380 nv         1 0WC      -0.930500
     22 N19          6.5830    -6.2980     0.1940 nb         1 0WC      -0.754000
     23 Cl           9.4350    -3.8120    -0.9090 cl         1 0WC      -0.063400
     24 C23         -0.7510    -1.1770    -0.0690 cc         1 0WC       0.351700
     25 N24         -0.7050    -2.5100     0.0120 nd         1 0WC      -0.632000
     26 C25         -1.6090    -2.9460     0.9640 cd         1 0WC       0.332200
     27 S27         -1.8810    -0.4450     1.0030 ss         1 0WC      -0.059300
     28 H1           3.5830     1.5680     1.5670 ha         1 0WC       0.139000
     29 H2           5.9080     1.6440     2.4680 ha         1 0WC       0.138000
     30 H3           8.0400    -0.5120     2.9380 hc         1 0WC       0.065700
     31 H4           8.5390     0.5380     1.5450 hc         1 0WC       0.065700
     32 H5           8.4350    -6.4680    -0.7140 h4         1 0WC       0.039100
     33 H6          -3.0770    -2.0930     2.3700 h4         1 0WC       0.182000
     34 H7           0.2330     1.6790    -1.7660 hc         1 0WC       0.059033
     35 H8          -1.4520     1.0220    -1.6390 hc         1 0WC       0.059033
     36 H9          -0.5530     1.5290    -0.1310 hc         1 0WC       0.059033
     37 H10          0.4520    -1.7850    -2.2910 ho         1 0WC       0.425000
     38 H11          9.1400    -1.3230     0.2740 h1         1 0WC       0.065700
     39 H12          8.7900    -2.3820     1.7210 h1         1 0WC       0.065700
     40 H13          4.4740    -2.0880    -0.5930 ha         1 0WC       0.156000
     41 H14          3.7730    -5.3120     1.5390 hn         1 0WC       0.436800
     42 H15          4.2760    -6.8710     1.1020 hn         1 0WC       0.436800
     43 H16         -1.6970    -4.0220     1.1510 h4         1 0WC       0.044100
@<TRIPOS>BOND
     1     1     2 3   
     2     1    15 1   
     3     2     3 1   
     4     3     4 ar  
     5     3    19 ar  
     6     4     5 ar  
     7     4    28 1   
     8     5    17 ar  
     9     5    29 1   
    10     6    17 1   
    11     6    18 1   
    12     6    30 1   
    13     6    31 1   
    14     7     8 1   
    15     7     9 1   
    16     7    18 1   
    17     8    17 ar  
    18     8    19 ar  
    19     9    12 ar  
    20     9    20 ar  
    21    10    20 ar  
    22    10    21 1   
    23    10    22 ar  
    24    11    12 ar  
    25    11    22 ar  
    26    11    32 1   
    27    12    23 1   
    28    13    26 2   
    29    13    27 1   
    30    13    33 1   
    31    14    15 1   
    32    14    34 1   
    33    14    35 1   
    34    14    36 1   
    35    15    16 1   
    36    15    24 1   
    37    16    37 1   
    38    18    38 1   
    39    18    39 1   
    40    19    40 1   
    41    21    41 1   
    42    21    42 1   
    43    24    25 2   
    44    24    27 1   
    45    25    26 1   
    46    26    43 1   
@<TRIPOS>SUBSTRUCTURE
     1 0WC         1 TEMP              0 ****  ****    0 ROOT
