@<TRIPOS>MOLECULE
molecule
   43    46     1     0     0
SMALL
bcc


@<TRIPOS>ATOM
      1 C4           1.4720     0.0000     0.0000 c1         1 0WC      -0.173100
      2 C5           2.6450     0.0190    -0.0080 cg         1 0WC      -0.125000
      3 C6           4.3510     0.0810     0.2980 ca         1 0WC       0.144000
      4 C7           4.9500    -0.8360     0.6540 ca         1 0WC      -0.132000
      5 C8           6.2730    -0.8110     0.8980 ca         1 0WC      -0.104000
      6 C10          8.3360     0.6060     0.9140 c3         1 0WC      -0.066100
      7 N12          7.2170     2.3750     0.2350 nh         1 0WC      -0.647700
      8 C13          6.1500     1.2220     0.3380 ca         1 0WC       0.119600
      9 C15          7.0870     3.5180     0.7590 ca         1 0WC       0.718200
     10 C17          6.1560     5.8310     0.5910 ca         1 0WC       0.960900
     11 C20          7.5710     5.0940     2.6950 ca         1 0WC       0.673200
     12 C21          7.5190     4.0890     1.9290 ca         1 0WC      -0.208200
     13 C26         -1.6200    -3.3820    -1.2600 cc         1 0WC      -0.168400
     14 C1          -0.5100     0.0000     1.4430 c3         1 0WC      -0.107100
     15 C2           0.0000     0.0000     0.0000 c3         1 0WC       0.290600
     16 O3          -0.4770     1.1660    -0.6740 oh         1 0WC      -0.677800
     17 C9           7.1200     0.2420     0.7800 ca         1 0WC      -0.061300
     18 C11          8.6660     1.9070     0.6330 c3         1 0WC       0.205800
     19 C14          4.8970     1.0220    -0.3520 ca         1 0WC      -0.063000
     20 N16          5.8560     4.4900     0.6190 nb         1 0WC      -0.846000
     21 N18          5.2990     6.9900     0.0460 nv         1 0WC      -1.032500
     22 N19          6.7170     6.0280     1.7490 nb         1 0WC      -0.972000
     23 Cl           9.2690     4.4200     2.6910 cl         1 0WC      -0.318400
     24 C23         -0.5030    -1.2310    -0.7100 cc         1 0WC       0.443700
     25 N24         -0.3550    -1.6680    -1.9260 nd         1 0WC      -0.669000
     26 C25         -0.9240    -2.8110    -2.2480 cd         1 0WC       0.375200
     27 S27         -1.5090    -2.3370     0.1550 ss         1 0WC      -0.269300
     28 H1           4.4660    -1.6840     1.1230 ha         1 0WC       0.147000
     29 H2           6.7160    -1.6880     1.3550 ha         1 0WC       0.120000
     30 H3           8.5340     0.7550     1.9690 hc         1 0WC       0.078200
     31 H4           9.1220    -0.1200     0.7440 hc         1 0WC       0.078200
     32 H5           8.0500     5.6170     3.5140 h4         1 0WC       0.116100
     33 H6          -2.0850    -4.3520    -1.1280 h4         1 0WC       0.181000
     34 H7          -0.6430    -1.0330     1.7390 hc         1 0WC       0.075033
     35 H8          -1.5290     0.0830     1.0850 hc         1 0WC       0.075033
     36 H9          -0.4040     0.9740     1.9050 hc         1 0WC       0.075033
     37 H10         -0.1470     1.6350    -1.4220 ho         1 0WC       0.465000
     38 H11          9.3510     2.0050    -0.2010 h1         1 0WC       0.088200
     39 H12          8.7790     2.4780     1.5470 h1         1 0WC       0.088200
     40 H13          4.6310     2.0520    -0.5560 ha         1 0WC       0.190000
     41 H14          5.6450     7.9150     0.2100 hn         1 0WC       0.443300
     42 H15          4.3800     6.8420    -0.3220 hn         1 0WC       0.443300
     43 H16         -0.3910    -3.3870    -2.9940 h4         1 0WC       0.047100
@<TRIPOS>BOND
     1    16    15 1   
     2    15    14 1   
     3    15     1 1   
     4    15    24 1   
     5     1     2 3   
     6    24    25 2   
     7    24    27 1   
     8     4     5 ar  
     9     4     3 ar  
    10    25    26 1   
    11     2     3 1   
    12    27    13 1   
    13     5    17 ar  
    14    26    13 2   
    15     3    19 ar  
    16    17     6 1   
    17    17     8 ar  
    18    19     8 ar  
    19     6    18 1   
    20     8     7 1   
    21     7    18 1   
    22     7     9 1   
    23    20     9 ar  
    24    20    10 ar  
    25     9    12 ar  
    26    21    10 1   
    27    10    22 ar  
    28    12    23 1   
    29    12    11 ar  
    30    22    11 ar  
    31     4    28 1   
    32     5    29 1   
    33     6    30 1   
    34     6    31 1   
    35    11    32 1   
    36    13    33 1   
    37    14    34 1   
    38    14    35 1   
    39    14    36 1   
    40    16    37 1   
    41    18    38 1   
    42    18    39 1   
    43    19    40 1   
    44    21    41 1   
    45    21    42 1   
    46    26    43 1   
@<TRIPOS>SUBSTRUCTURE
     1 0WC         1 TEMP              0 ****  ****    0 ROOT
