@<TRIPOS>MOLECULE
0WC
   43    47     1     0     0
SMALL
bcc


@<TRIPOS>ATOM
      1 C4           1.4720     0.0000     0.0000 c1         1 0WC      -0.222000
      2 C5           2.6450     0.0190    -0.0080 c1         1 0WC      -0.140000
      3 C6           4.3510     0.0810     0.2980 ca         1 0WC       0.180000
      4 C7           4.9500    -0.8360     0.6540 ca         1 0WC      -0.113000
      5 C8           6.2730    -0.8110     0.8980 ca         1 0WC      -0.067000
      6 C10          8.3360     0.6060     0.9140 c3         1 0WC      -0.090000
      7 N12          7.2170     2.3750     0.2350 nh         1 0WC       0.119000
      8 C13          6.1500     1.2220     0.3380 ca         1 0WC      -0.082000
      9 C15          7.0870     3.5180     0.7590 c2         1 0WC       0.068000
     10 C17          6.1560     5.8310     0.5910 c2         1 0WC       0.088000
     11 C20          7.5710     5.0940     2.6950 c3         1 0WC       0.195000
     12 C21          7.5190     4.0890     1.9290 c2         1 0WC      -0.192000
     13 C26         -1.6200    -3.3820    -1.2600 c2         1 0WC      -0.306000
     14 C1          -0.5100     0.0000     1.4430 c3         1 0WC      -0.177000
     15 C2           0.0000     0.0000     0.0000 c3         1 0WC       0.389000
     16 O3          -0.4770     1.1660    -0.6740 oh         1 0WC      -0.380000
     17 C9           7.1200     0.2420     0.7800 ca         1 0WC      -0.067000
     18 C11          8.6660     1.9070     0.6330 c3         1 0WC      -0.087000
     19 C14          4.8970     1.0220    -0.3520 ca         1 0WC      -0.036000
     20 N16          5.8560     4.4900     0.6190 n2         1 0WC      -0.298000
     21 N18          5.2990     6.9900     0.0460 n8         1 0WC       0.019000
     22 N19          6.7170     6.0280     1.7490 n2         1 0WC      -0.400000
     23 Cl           9.2690     4.4200     2.6910 cl         1 0WC      -0.114000
     24 C23         -0.5030    -1.2310    -0.7100 c2         1 0WC      -0.259000
     25 N24         -0.3550    -1.6680    -1.9260 n2         1 0WC      -0.015000
     26 C25         -0.9240    -2.8110    -2.2480 c2         1 0WC      -0.106000
     27 S27         -1.5090    -2.3370     0.1550 ss         1 0WC       0.237000
     28 H1           4.4660    -1.6840     1.1230 ha         1 0WC       0.123000
     29 H2           6.7160    -1.6880     1.3550 ha         1 0WC       0.086000
     30 H3           8.5340     0.7550     1.9690 hc         1 0WC       0.087000
     31 H4           9.1220    -0.1200     0.7440 hc         1 0WC       0.087000
     32 H5           8.0500     5.6170     3.5140 h2         1 0WC       0.189000
     33 H6          -2.0850    -4.3520    -1.1280 h4         1 0WC       0.158000
     34 H7          -0.6430    -1.0330     1.7390 hc         1 0WC       0.084333
     35 H8          -1.5290     0.0830     1.0850 hc         1 0WC       0.084333
     36 H9          -0.4040     0.9740     1.9050 hc         1 0WC       0.084333
     37 H10         -0.1470     1.6350    -1.4220 ho         1 0WC       0.241000
     38 H11          9.3510     2.0050    -0.2010 h1         1 0WC       0.096500
     39 H12          8.7790     2.4780     1.5470 h1         1 0WC       0.096500
     40 H13          4.6310     2.0520    -0.5560 ha         1 0WC       0.157000
     41 H14          5.6450     7.9150     0.2100 hn         1 0WC       0.071000
     42 H15          4.3800     6.8420    -0.3220 hn         1 0WC       0.071000
     43 H16         -0.3910    -3.3870    -2.9940 h4         1 0WC       0.140000
@<TRIPOS>BOND
     1     1     2 1   
     2     1    15 1   
     3     2     3 1   
     4     3     4 1   
     5     3    19 1   
     6     4     5 1   
     7     4    28 1   
     8     5    17 1   
     9     5    29 1   
    10     6    17 1   
    11     6    18 1   
    12     6    30 1   
    13     6    31 1   
    14     7     8 1   
    15     7     9 1   
    16     7    18 1   
    17     8    17 1   
    18     8    19 1   
    19     9    12 1   
    20     9    20 1   
    21    10    20 1   
    22    10    21 1   
    23    10    22 1   
    24    11    12 1   
    25    11    22 1   
    26    11    23 1   
    27    11    32 1   
    28    12    23 1   
    29    13    26 1   
    30    13    27 1   
    31    13    33 1   
    32    14    15 1   
    33    14    34 1   
    34    14    35 1   
    35    14    36 1   
    36    15    16 1   
    37    15    24 1   
    38    16    37 1   
    39    18    38 1   
    40    18    39 1   
    41    19    40 1   
    42    21    41 1   
    43    21    42 1   
    44    24    25 1   
    45    24    27 1   
    46    25    26 1   
    47    26    43 1   
@<TRIPOS>SUBSTRUCTURE
     1 0WC         1 TEMP              0 ****  ****    0 ROOT
