@<TRIPOS>MOLECULE
0WF
   53    57     1     0     0
SMALL
bcc


@<TRIPOS>ATOM
      1 C1           0.0000     0.0000     0.0000 c3         1 0WF      -0.009100
      2 C2           1.5300     0.0000     0.0000 c3         1 0WF       0.090200
      3 C3           2.0320    -1.2310    -0.7100 cc         1 0WF       0.303900
      4 N1           1.6030    -1.4690    -1.9750 ns         1 0WF      -0.005400
      5 C4           2.0320    -2.5630    -2.6470 c          1 0WF       0.655100
      6 O1           1.6580    -2.7930    -3.7830 o          1 0WF      -0.668500
      7 C5           2.9610    -3.4580    -1.9570 cc         1 0WF      -0.450900
      8 C6           3.6150    -4.6580    -2.2980 cc         1 0WF       0.482200
      9 N2           4.3420    -5.0310    -1.2820 nd         1 0WF      -0.645800
     10 N3           4.2000    -4.1050    -0.2390 na         1 0WF       0.527400
     11 C7           3.3480    -3.1300    -0.6480 cd         1 0WF       0.009100
     12 N4           2.8610    -2.0130    -0.0840 nd         1 0WF      -0.515100
     13 C8           4.8580    -4.1770     1.0670 c3         1 0WF      -0.047000
     14 C9           4.4660    -5.4820     1.7840 c3         1 0WF      -0.037400
     15 C10          5.7740    -6.2670     2.0140 c3         1 0WF      -0.021400
     16 C11          6.8780    -5.1820     1.9950 c3         1 0WF      -0.021400
     17 C12          6.3890    -4.2150     0.8870 c3         1 0WF      -0.037400
     18 N5           2.0200     0.0000     1.3860 nq         1 0WF      -0.506600
     19 C13          3.4610     0.3100     1.4360 cy         1 0WF       0.115800
     20 C14          3.1710     1.1920     2.6580 cy         1 0WF       0.124100
     21 C15          1.7750     1.3030     2.0320 cy         1 0WF       0.115800
     22 O2           3.9020     2.4200     2.6790 os         1 0WF      -0.288900
     23 C16          4.9020     2.5270     3.5930 ca         1 0WF       0.148100
     24 C17          5.5680     3.7330     3.7570 ca         1 0WF      -0.176500
     25 C18          6.5840     3.8400     4.6870 ca         1 0WF      -0.057000
     26 C19          6.9390     2.7450     5.4540 ca         1 0WF      -0.143000
     27 C20          6.2780     1.5420     5.2920 ca         1 0WF      -0.057000
     28 C21          5.2560     1.4320     4.3680 ca         1 0WF      -0.176500
     29 H3          -0.3610    -0.9830    -0.2770 hc         1 0WF       0.017700
     30 H4          -0.3610     0.7310    -0.7130 hc         1 0WF       0.017700
     31 H2          -0.3610     0.2520     0.9900 hc         1 0WF       0.017700
     32 H5           1.8910     0.8840    -0.5110 h1         1 0WF       0.027700
     33 H1           0.9670    -0.8330    -2.4140 hn         1 0WF       0.184500
     34 H6           3.5280    -5.1810    -3.2420 h4         1 0WF       0.014100
     35 H7           4.5790    -3.3240     1.6760 h1         1 0WF       0.058700
     36 H8           3.9990    -5.2560     2.7350 hc         1 0WF       0.029450
     37 H9           3.7940    -6.0580     1.1610 hc         1 0WF       0.029450
     38 H10          5.9310    -6.9800     1.2140 hc         1 0WF       0.019450
     39 H11          5.7510    -6.7650     2.9750 hc         1 0WF       0.019450
     40 H12          6.9310    -4.6740     2.9500 hc         1 0WF       0.019450
     41 H13          7.8350    -5.6150     1.7280 hc         1 0WF       0.019450
     42 H15          6.8110    -3.2280     1.0330 hc         1 0WF       0.029450
     43 H14          6.6440    -4.6020    -0.0930 hc         1 0WF       0.029450
     44 H17          4.0700    -0.5540     1.6740 h1         1 0WF       0.037200
     45 H16          3.8010     0.8760     0.5780 h1         1 0WF       0.037200
     46 H18          3.1760     0.6410     3.5910 h1         1 0WF       0.063700
     47 H19          0.9790     1.2660     2.7660 h1         1 0WF       0.037200
     48 H20          1.6940     2.1170     1.3220 h1         1 0WF       0.037200
     49 H21          5.2910     4.5910     3.1560 ha         1 0WF       0.119000
     50 H22          7.1040     4.7820     4.8150 ha         1 0WF       0.102000
     51 H23          7.7370     2.8300     6.1810 ha         1 0WF       0.106000
     52 H24          6.5560     0.6860     5.8960 ha         1 0WF       0.102000
     53 H25          4.7380     0.4890     4.2420 ha         1 0WF       0.119000
@<TRIPOS>BOND
     1     1     2 1   
     2     1    29 1   
     3     1    30 1   
     4     1    31 1   
     5     2     3 1   
     6     2    18 1   
     7     2    32 1   
     8     3     4 1   
     9     3    12 2   
    10     4     5 1   
    11     4    33 1   
    12     5     6 2   
    13     5     7 1   
    14     7     8 1   
    15     7    11 2   
    16     8     9 2   
    17     8    34 1   
    18     9    10 1   
    19    10    11 1   
    20    10    13 1   
    21    11    12 1   
    22    13    14 1   
    23    13    17 1   
    24    13    35 1   
    25    14    15 1   
    26    14    36 1   
    27    14    37 1   
    28    15    16 1   
    29    15    38 1   
    30    15    39 1   
    31    16    17 1   
    32    16    40 1   
    33    16    41 1   
    34    17    42 1   
    35    17    43 1   
    36    18    19 1   
    37    18    21 1   
    38    19    20 1   
    39    19    44 1   
    40    19    45 1   
    41    20    21 1   
    42    20    22 1   
    43    20    46 1   
    44    21    47 1   
    45    21    48 1   
    46    22    23 1   
    47    23    24 ar  
    48    23    28 ar  
    49    24    25 ar  
    50    24    49 1   
    51    25    26 ar  
    52    25    50 1   
    53    26    27 ar  
    54    26    51 1   
    55    27    28 ar  
    56    27    52 1   
    57    28    53 1   
@<TRIPOS>SUBSTRUCTURE
     1 0WF         1 TEMP              0 ****  ****    0 ROOT
