@<TRIPOS>MOLECULE
molecule
   53    57     1     0     0
SMALL
bcc


@<TRIPOS>ATOM
      1 C1           0.0000     0.0000     0.0000 c3         1 0WF      -0.096100
      2 C2           1.5300     0.0000     0.0000 c3         1 0WF       0.105200
      3 C3           2.0320    -1.2310    -0.7100 cc         1 0WF       0.529900
      4 N1           1.6030    -1.4690    -1.9750 ns         1 0WF      -0.469400
      5 C4           2.0320    -2.5630    -2.6470 c          1 0WF       0.735100
      6 O1           1.6580    -2.7930    -3.7830 o          1 0WF      -0.629500
      7 C5           2.9610    -3.4580    -1.9570 cc         1 0WF      -0.426900
      8 C6           3.6150    -4.6580    -2.2980 cc         1 0WF       0.406200
      9 N2           4.3420    -5.0310    -1.2820 nd         1 0WF      -0.501800
     10 N3           4.2000    -4.1050    -0.2390 na         1 0WF       0.092400
     11 C7           3.3480    -3.1300    -0.6480 cd         1 0WF       0.218100
     12 N4           2.8610    -2.0130    -0.0840 nd         1 0WF      -0.649100
     13 C8           4.8580    -4.1770     1.0670 c3         1 0WF       0.078000
     14 C9           4.4660    -5.4820     1.7840 c3         1 0WF      -0.095400
     15 C10          5.7740    -6.2670     2.0140 c3         1 0WF      -0.083400
     16 C11          6.8780    -5.1820     1.9950 c3         1 0WF      -0.083400
     17 C12          6.3890    -4.2150     0.8870 c3         1 0WF      -0.095400
     18 N5           2.0200     0.0000     1.3860 nq         1 0WF      -0.627600
     19 C13          3.4610     0.3100     1.4360 cy         1 0WF       0.102300
     20 C14          3.1710     1.1920     2.6580 cy         1 0WF       0.102100
     21 C15          1.7750     1.3030     2.0320 cy         1 0WF       0.102300
     22 O2           3.9020     2.4200     2.6790 os         1 0WF      -0.318900
     23 C16          4.9020     2.5270     3.5930 ca         1 0WF       0.139100
     24 C17          5.5680     3.7330     3.7570 ca         1 0WF      -0.189000
     25 C18          6.5840     3.8400     4.6870 ca         1 0WF      -0.090500
     26 C19          6.9390     2.7450     5.4540 ca         1 0WF      -0.165000
     27 C20          6.2780     1.5420     5.2920 ca         1 0WF      -0.090500
     28 C21          5.2560     1.4320     4.3680 ca         1 0WF      -0.189000
     29 H3          -0.3610    -0.9830    -0.2770 hc         1 0WF       0.053033
     30 H4          -0.3610     0.7310    -0.7130 hc         1 0WF       0.053033
     31 H2          -0.3610     0.2520     0.9900 hc         1 0WF       0.053033
     32 H5           1.8910     0.8840    -0.5110 h1         1 0WF       0.052700
     33 H1           0.9670    -0.8330    -2.4140 hn         1 0WF       0.339500
     34 H6           3.5280    -5.1810    -3.2420 h4         1 0WF       0.063100
     35 H7           4.5790    -3.3240     1.6760 h1         1 0WF       0.085700
     36 H8           3.9990    -5.2560     2.7350 hc         1 0WF       0.060450
     37 H9           3.7940    -6.0580     1.1610 hc         1 0WF       0.060450
     38 H10          5.9310    -6.9800     1.2140 hc         1 0WF       0.049450
     39 H11          5.7510    -6.7650     2.9750 hc         1 0WF       0.049450
     40 H12          6.9310    -4.6740     2.9500 hc         1 0WF       0.049450
     41 H13          7.8350    -5.6150     1.7280 hc         1 0WF       0.049450
     42 H15          6.8110    -3.2280     1.0330 hc         1 0WF       0.060450
     43 H14          6.6440    -4.6020    -0.0930 hc         1 0WF       0.060450
     44 H17          4.0700    -0.5540     1.6740 h1         1 0WF       0.070700
     45 H16          3.8010     0.8760     0.5780 h1         1 0WF       0.070700
     46 H18          3.1760     0.6410     3.5910 h1         1 0WF       0.090700
     47 H19          0.9790     1.2660     2.7660 h1         1 0WF       0.070700
     48 H20          1.6940     2.1170     1.3220 h1         1 0WF       0.070700
     49 H21          5.2910     4.5910     3.1560 ha         1 0WF       0.139500
     50 H22          7.1040     4.7820     4.8150 ha         1 0WF       0.132500
     51 H23          7.7370     2.8300     6.1810 ha         1 0WF       0.131000
     52 H24          6.5560     0.6860     5.8960 ha         1 0WF       0.132500
     53 H25          4.7380     0.4890     4.2420 ha         1 0WF       0.139500
@<TRIPOS>BOND
     1    27    26 ar  
     2    27    28 ar  
     3    26    25 ar  
     4    28    23 ar  
     5    25    24 ar  
     6    23    24 ar  
     7    23    22 1   
     8    20    22 1   
     9    20    21 1   
    10    20    19 1   
    11    16    15 1   
    12    16    17 1   
    13    15    14 1   
    14    21    18 1   
    15    19    18 1   
    16    17    13 1   
    17    18     2 1   
    18    14    13 1   
    19    13    10 1   
    20    12     3 2   
    21    12    11 1   
    22     2     1 1   
    23     2     3 1   
    24    10    11 1   
    25    10     9 1   
    26     3     4 1   
    27    11     7 2   
    28     9     8 2   
    29     4     5 1   
    30     7     8 1   
    31     7     5 1   
    32     5     6 2   
    33     1    29 1   
    34     1    30 1   
    35     1    31 1   
    36     2    32 1   
    37     4    33 1   
    38     8    34 1   
    39    13    35 1   
    40    14    36 1   
    41    14    37 1   
    42    15    38 1   
    43    15    39 1   
    44    16    40 1   
    45    16    41 1   
    46    17    42 1   
    47    17    43 1   
    48    19    44 1   
    49    19    45 1   
    50    20    46 1   
    51    21    47 1   
    52    21    48 1   
    53    24    49 1   
    54    25    50 1   
    55    26    51 1   
    56    27    52 1   
    57    28    53 1   
@<TRIPOS>SUBSTRUCTURE
     1 0WF         1 TEMP              0 ****  ****    0 ROOT
