@<TRIPOS>MOLECULE
0WF
   53    57     1     0     0
SMALL
bcc


@<TRIPOS>ATOM
      1 C1           1.7350    -0.9100     1.7220 c3         1 0WF      -0.089100
      2 C2           2.9490    -0.6620     0.8320 c3         1 0WF       0.148200
      3 C3           3.3540    -1.9580     0.0720 cc         1 0WF       0.517900
      4 N1           4.2060    -1.7660    -1.0160 ns         1 0WF      -0.492400
      5 C4           4.6850    -2.8410    -1.8120 c          1 0WF       0.750100
      6 O1           5.4540    -2.5810    -2.7530 o          1 0WF      -0.626500
      7 C5           4.1910    -4.1300    -1.4030 cc         1 0WF      -0.375900
      8 C6           4.3540    -5.4850    -1.8550 cc         1 0WF       0.378200
      9 N2           3.6420    -6.3200    -1.0630 nd         1 0WF      -0.509800
     10 N3           3.0150    -5.5880    -0.1160 na         1 0WF       0.112400
     11 C7           3.3140    -4.2260    -0.2650 cd         1 0WF       0.176100
     12 N4           2.8890    -3.1330     0.4870 nd         1 0WF      -0.616100
     13 C8           2.1730    -6.1530     0.9320 c3         1 0WF       0.070000
     14 C9           0.9510    -6.9380     0.4100 c3         1 0WF      -0.091900
     15 C10          0.6170    -7.9490     1.4970 c3         1 0WF      -0.079400
     16 C11          1.8310    -8.0680     2.4100 c3         1 0WF      -0.079400
     17 C12          2.9040    -7.1280     1.8790 c3         1 0WF      -0.091900
     18 N5           4.1270    -0.1840     1.5380 nq         1 0WF      -0.715600
     19 C13          4.9980     0.7700     0.8130 cy         1 0WF       0.127300
     20 C14          4.9610     1.7340     2.0380 cy         1 0WF       0.100100
     21 C15          3.9460     0.7390     2.6800 cy         1 0WF       0.127300
     22 O2           4.3000     2.9610     1.7850 os         1 0WF      -0.324900
     23 C16          5.1120     4.0160     1.3940 ca         1 0WF       0.112100
     24 C17          4.5620     5.2960     1.5790 ca         1 0WF      -0.171000
     25 C18          5.2910     6.4070     1.1670 ca         1 0WF      -0.099500
     26 C19          6.5520     6.2520     0.5860 ca         1 0WF      -0.155000
     27 C20          7.0880     4.9780     0.4090 ca         1 0WF      -0.099500
     28 C21          6.3720     3.8490     0.8080 ca         1 0WF      -0.171000
     29 H3           1.9900    -1.5650     2.5900 hc         1 0WF       0.054700
     30 H4           0.9290    -1.4020     1.1250 hc         1 0WF       0.054700
     31 H2           1.3370     0.0610     2.1060 hc         1 0WF       0.054700
     32 H5           2.6180     0.0760     0.0300 h1         1 0WF       0.044700
     33 H1           4.5430    -0.8500    -1.2170 hn         1 0WF       0.333500
     34 H6           4.9480    -5.8400    -2.6990 h4         1 0WF       0.058100
     35 H7           1.8000    -5.2760     1.5400 h1         1 0WF       0.085700
     36 H8           1.1830    -7.4670    -0.5490 hc         1 0WF       0.060450
     37 H9           0.0970    -6.2440     0.2180 hc         1 0WF       0.060450
     38 H10          0.3630    -8.9390     1.0430 hc         1 0WF       0.045200
     39 H11         -0.2770    -7.6130     2.0810 hc         1 0WF       0.045200
     40 H12          2.2120    -9.1190     2.4320 hc         1 0WF       0.045200
     41 H13          1.5560    -7.7920     3.4590 hc         1 0WF       0.045200
     42 H15          3.4010    -6.5640     2.7060 hc         1 0WF       0.060450
     43 H14          3.6920    -7.7090     1.3390 hc         1 0WF       0.060450
     44 H17          4.5710     1.2200    -0.1160 h1         1 0WF       0.071450
     45 H16          5.9960     0.3190     0.6040 h1         1 0WF       0.071450
     46 H18          5.9230     1.8750     2.5760 h1         1 0WF       0.081700
     47 H19          2.9290     1.1770     2.8170 h1         1 0WF       0.071450
     48 H20          4.3010     0.2690     3.6270 h1         1 0WF       0.071450
     49 H21          3.5690     5.4010     2.0380 ha         1 0WF       0.143500
     50 H22          4.8700     7.4140     1.3040 ha         1 0WF       0.135500
     51 H23          7.1220     7.1380     0.2680 ha         1 0WF       0.136000
     52 H24          8.0790     4.8560    -0.0520 ha         1 0WF       0.135500
     53 H25          6.7900     2.8440     0.6550 ha         1 0WF       0.143500
@<TRIPOS>BOND
     1     1     2 1   
     2     1    29 1   
     3     1    30 1   
     4     1    31 1   
     5     2     3 1   
     6     2    18 1   
     7     2    32 1   
     8     3     4 1   
     9     3    12 2   
    10     4     5 1   
    11     4    33 1   
    12     5     6 2   
    13     5     7 1   
    14     7     8 1   
    15     7    11 2   
    16     8     9 2   
    17     8    34 1   
    18     9    10 1   
    19    10    11 1   
    20    10    13 1   
    21    11    12 1   
    22    13    14 1   
    23    13    17 1   
    24    13    35 1   
    25    14    15 1   
    26    14    36 1   
    27    14    37 1   
    28    15    16 1   
    29    15    38 1   
    30    15    39 1   
    31    16    17 1   
    32    16    40 1   
    33    16    41 1   
    34    17    42 1   
    35    17    43 1   
    36    18    19 1   
    37    18    21 1   
    38    19    20 1   
    39    19    44 1   
    40    19    45 1   
    41    20    21 1   
    42    20    22 1   
    43    20    46 1   
    44    21    47 1   
    45    21    48 1   
    46    22    23 1   
    47    23    24 ar  
    48    23    28 ar  
    49    24    25 ar  
    50    24    49 1   
    51    25    26 ar  
    52    25    50 1   
    53    26    27 ar  
    54    26    51 1   
    55    27    28 ar  
    56    27    52 1   
    57    28    53 1   
@<TRIPOS>SUBSTRUCTURE
     1 0WF         1 TEMP              0 ****  ****    0 ROOT
