@<TRIPOS>MOLECULE
0WG
   41    43     1     0     0
SMALL
bcc


@<TRIPOS>ATOM
      1 C1          -0.0100    -0.1000     0.0320 c3         1 0WG       0.074300
      2 N2           1.4390    -0.0520     0.0450 n          1 0WG      -0.426300
      3 C3           2.1390     0.0140     1.2410 ca         1 0WG       0.649200
      4 N4           1.4210     0.0320     2.4100 nb         1 0WG      -0.763000
      5 C5           2.0870     0.1040     3.5870 ca         1 0WG       0.700200
      6 N6           1.3440     0.2440     4.7850 nv         1 0WG      -0.933500
      7 C7           3.5180     0.1400     3.6580 ca         1 0WG      -0.386600
      8 C8           4.2020     0.2400     4.9710 c3         1 0WG       0.201100
      9 N9           4.1410     1.6510     5.4770 nz         1 0WG      -0.867600
     10 C10          4.2540     0.1200     2.4590 cp         1 0WG       0.157000
     11 C11          5.7250     0.1640     2.5330 cp         1 0WG      -0.057000
     12 C12          6.4480    -1.0310     2.4190 ca         1 0WG      -0.091000
     13 C13          7.8410    -1.0210     2.4670 ca         1 0WG      -0.092000
     14 C14          8.5260     0.1820     2.6280 ca         1 0WG      -0.103000
     15 C15          7.8180     1.3780     2.7510 ca         1 0WG      -0.089000
     16 C16          6.4220     1.3700     2.7190 ca         1 0WG      -0.035900
     17 Br1          5.5110     3.0120     2.9020 br         1 0WG      -0.090100
     18 C18          3.5810     0.0560     1.2340 ca         1 0WG      -0.320900
     19 C19          4.3030     0.0470    -0.0570 c          1 0WG       0.727100
     20 O20          5.5400     0.1040    -0.1530 o          1 0WG      -0.581500
     21 N21          3.5320    -0.0360    -1.2270 n          1 0WG      -0.481400
     22 C22          4.1830    -0.0320    -2.5210 c3         1 0WG       0.074300
     23 C23          2.1260    -0.0730    -1.2080 c          1 0WG       0.811500
     24 O24          1.4670    -0.1290    -2.2630 o          1 0WG      -0.582500
     25 H1          -0.3810    -0.1490    -1.0280 h1         1 0WG       0.077033
     26 H2          -0.3610    -1.0100     0.5880 h1         1 0WG       0.077033
     27 H3          -0.4220     0.8210     0.5250 h1         1 0WG       0.077033
     28 H4           1.5430    -0.4940     5.4320 hn         1 0WG       0.410800
     29 H5           0.3550     0.3400     4.6420 hn         1 0WG       0.410800
     30 H6           5.2940    -0.0410     4.8830 hx         1 0WG       0.105700
     31 H7           3.7340    -0.4270     5.7500 hx         1 0WG       0.105700
     32 H8           4.6470     1.7370     6.3590 hn         1 0WG       0.459467
     33 H9           3.1660     1.9330     5.6150 hn         1 0WG       0.459467
     34 H11          5.9100    -1.9790     2.2600 ha         1 0WG       0.155000
     35 H12          8.3990    -1.9660     2.3610 ha         1 0WG       0.161000
     36 H13          9.6280     0.1960     2.6450 ha         1 0WG       0.162000
     37 H14          8.3700     2.3270     2.8600 ha         1 0WG       0.164000
     38 H15          3.5950    -0.6620    -3.2410 h1         1 0WG       0.074367
     39 H16          4.2390     1.0200    -2.9110 h1         1 0WG       0.074367
     40 H17          5.2210    -0.4460    -2.4120 h1         1 0WG       0.074367
     41 H93          4.5730     2.2820     4.7560 hn         1 0WG       0.459467
@<TRIPOS>BOND
     1     1     2 1   
     2     1    25 1   
     3     1    26 1   
     4     1    27 1   
     5     2     3 1   
     6     2    23 1   
     7     3     4 ar  
     8     3    18 ar  
     9     4     5 ar  
    10     5     6 1   
    11     5     7 ar  
    12     6    28 1   
    13     6    29 1   
    14     7     8 1   
    15     7    10 ar  
    16     8     9 1   
    17     8    30 1   
    18     8    31 1   
    19     9    32 1   
    20     9    33 1   
    21     9    41 1   
    22    10    11 1   
    23    10    18 ar  
    24    11    12 ar  
    25    11    16 ar  
    26    12    13 ar  
    27    12    34 1   
    28    13    14 ar  
    29    13    35 1   
    30    14    15 ar  
    31    14    36 1   
    32    15    16 ar  
    33    15    37 1   
    34    16    17 1   
    35    18    19 1   
    36    19    20 2   
    37    19    21 1   
    38    21    22 1   
    39    21    23 1   
    40    22    38 1   
    41    22    39 1   
    42    22    40 1   
    43    23    24 2   
@<TRIPOS>SUBSTRUCTURE
     1 0WG         1 TEMP              0 ****  ****    0 ROOT
