@<TRIPOS>MOLECULE
0WG
   41    43     1     0     0
SMALL
bcc


@<TRIPOS>ATOM
      1 C1           0.0000     0.0000     0.0000 c3         1 0WG       0.053300
      2 N2           1.4650     0.0000     0.0000 n          1 0WG      -0.016300
      3 C3           2.1500     0.0000     1.2030 ca         1 0WG       0.452200
      4 N4           1.5080     0.0000     2.3590 nb         1 0WG      -0.623000
      5 C5           2.1560     0.0000     3.5160 ca         1 0WG       0.599200
      6 N6           1.4310     0.0010     4.6960 nv         1 0WG      -0.665500
      7 C7           3.5460    -0.0000     3.5720 ca         1 0WG      -0.396600
      8 C8           4.2560    -0.0010     4.9020 c3         1 0WG       0.050100
      9 N9           4.4850    -1.3860     5.3340 nz         1 0WG       0.066400
     10 C10          4.2750    -0.0010     2.3850 cp         1 0WG       0.169000
     11 C11          5.7560    -0.0010     2.3950 cp         1 0WG      -0.072000
     12 C12          6.4560    -1.2080     2.3950 ca         1 0WG      -0.114000
     13 C13          7.8360    -1.2030     2.4050 ca         1 0WG      -0.079000
     14 C14          8.5260    -0.0050     2.4150 ca         1 0WG      -0.066000
     15 C15          7.8390     1.1960     2.4170 ca         1 0WG      -0.060000
     16 C16          6.4580     1.2040     2.4010 ca         1 0WG       0.046100
     17 Br1          5.5200     2.8460     2.3940 br         1 0WG      -0.089100
     18 C18          3.5550    -0.0010     1.1740 ca         1 0WG      -0.332900
     19 C19          4.2310    -0.0010    -0.1270 c          1 0WG       0.638100
     20 O20          5.4460    -0.0020    -0.2010 o          1 0WG      -0.620500
     21 N21          3.4690    -0.0020    -1.2440 n          1 0WG      -0.081400
     22 C22          4.1180    -0.0090    -2.5570 c3         1 0WG       0.065300
     23 C23          2.1300    -0.0060    -1.1680 c          1 0WG       0.595500
     24 O24          1.4890    -0.0060    -2.2020 o          1 0WG      -0.658500
     25 H1          -0.3610     0.8950     0.4920 h1         1 0WG       0.039700
     26 H2          -0.3610    -0.0220    -1.0210 h1         1 0WG       0.039700
     27 H3          -0.3610    -0.8730     0.5290 h1         1 0WG       0.039700
     28 H4           0.9730    -0.8350     5.0020 hn         1 0WG       0.293300
     29 H5           1.3350     0.8460     5.2240 hn         1 0WG       0.293300
     30 H6           3.6460     0.5100     5.6370 hx         1 0WG       0.087700
     31 H7           5.2070     0.5090     4.8050 hx         1 0WG       0.087700
     32 H8           5.4510    -1.5070     5.5670 hn         1 0WG       0.223800
     33 H9           4.2410    -2.0120     4.5910 hn         1 0WG       0.223800
     34 H11          5.9170    -2.1470     2.3530 ha         1 0WG       0.101000
     35 H12          8.3790    -2.1400     2.4030 ha         1 0WG       0.117000
     36 H13          9.6090    -0.0060     2.4200 ha         1 0WG       0.122000
     37 H14          8.3850     2.1310     2.4120 ha         1 0WG       0.132000
     38 H15          4.9200    -0.7370    -2.5610 h1         1 0WG       0.038367
     39 H16          3.3910    -0.2690    -3.3170 h1         1 0WG       0.038367
     40 H17          4.5220     0.9750    -2.7660 h1         1 0WG       0.038367
     41 H93          3.9150    -1.5860     6.1320 hn         1 0WG       0.223800
@<TRIPOS>BOND
     1     1     2 1   
     2     1    25 1   
     3     1    26 1   
     4     1    27 1   
     5     2     3 1   
     6     2    23 1   
     7     3     4 ar  
     8     3    18 ar  
     9     4     5 ar  
    10     5     6 1   
    11     5     7 ar  
    12     6    28 1   
    13     6    29 1   
    14     7     8 1   
    15     7    10 ar  
    16     8     9 1   
    17     8    30 1   
    18     8    31 1   
    19     9    32 1   
    20     9    33 1   
    21     9    41 1   
    22    10    11 1   
    23    10    18 ar  
    24    11    12 ar  
    25    11    16 ar  
    26    12    13 ar  
    27    12    34 1   
    28    13    14 ar  
    29    13    35 1   
    30    14    15 ar  
    31    14    36 1   
    32    15    16 ar  
    33    15    37 1   
    34    16    17 1   
    35    18    19 1   
    36    19    20 2   
    37    19    21 1   
    38    21    22 1   
    39    21    23 1   
    40    22    38 1   
    41    22    39 1   
    42    22    40 1   
    43    23    24 2   
@<TRIPOS>SUBSTRUCTURE
     1 0WG         1 TEMP              0 ****  ****    0 ROOT
