@<TRIPOS>MOLECULE
molecule
   53    57     1     0     0
SMALL
bcc


@<TRIPOS>ATOM
      1 C            0.0000     0.0000     0.0000 ca         1 0WH       0.513800
      2 F           -6.8250    -2.8170    11.9720 f          1 0WH      -0.223633
      3 N            1.3330     0.0000     0.0000 nb         1 0WH      -0.792000
      4 O           -7.7740    -0.3550     6.2290 o          1 0WH      -0.573100
      5 C01         -0.6720     0.0020    -2.4200 c3         1 0WH       0.039600
      6 F01         -6.5820    -0.7030    11.1400 f          1 0WH      -0.223633
      7 N01         -0.9530     0.0010    -0.9830 na         1 0WH      -0.159100
      8 C02         -2.2050     0.0010    -0.4310 cc         1 0WH      -0.093100
      9 F02         -4.8000    -2.1320    11.1660 f          1 0WH      -0.223633
     10 N02         -6.4650     0.1710     4.5170 n          1 0WH      -0.375000
     11 C03         -2.1060     0.0010     0.9220 cd         1 0WH      -0.076400
     12 N03         -0.5290     0.0050     3.6530 nv         1 0WH      -1.021500
     13 C04         -3.2260     0.0010     1.8940 ca         1 0WH      -0.043800
     14 N04          1.4130     0.0140     2.3120 nb         1 0WH      -0.822000
     15 C05         -3.2490    -0.9230     2.9380 ca         1 0WH      -0.089000
     16 C06         -4.2900    -0.9200     3.8380 ca         1 0WH      -0.187000
     17 C07         -5.3300     0.0050     3.7150 ca         1 0WH       0.052600
     18 C08         -7.2840     1.2730     4.0070 c3         1 0WH       0.108000
     19 C09         -6.5320     1.7980     2.7730 c3         1 0WH      -0.045100
     20 C10         -5.3030     0.9220     2.6750 ca         1 0WH      -0.135300
     21 C11         -4.2620     0.9250     1.7690 ca         1 0WH      -0.078000
     22 C13         -5.8400    -1.6920     6.0210 c3         1 0WH      -0.112100
     23 C14         -6.3980    -2.3680     7.2460 ca         1 0WH      -0.077300
     24 C15         -7.2570    -3.4430     7.1120 ca         1 0WH      -0.082000
     25 C16         -7.7690    -4.0620     8.2360 ca         1 0WH      -0.130000
     26 C17         -7.4230    -3.6080     9.4950 ca         1 0WH      -0.079000
     27 C18         -6.5640    -2.5330     9.6290 ca         1 0WH      -0.177300
     28 C19         -6.0470    -1.9170     8.5040 ca         1 0WH      -0.062000
     29 C20         -6.1860    -2.0370    11.0020 c3         1 0WH       0.674200
     30 C21         -0.6710     0.0070     1.2350 ca         1 0WH      -0.381400
     31 C22          0.0870     0.0090     2.4140 ca         1 0WH       0.770200
     32 C23          2.0040     0.0000     1.1310 ca         1 0WH       0.731900
     33 H01         -0.3580     0.9920    -2.7270 h1         1 0WH       0.055033
     34 H01A        -1.5680    -0.2770    -2.9630 h1         1 0WH       0.055033
     35 H01B         0.1160    -0.7100    -2.6360 h1         1 0WH       0.055033
     36 H02         -3.1330    -0.0000    -0.9890 h4         1 0WH       0.175000
     37 HN03        -1.3730     0.5250     3.7940 hn         1 0WH       0.444800
     38 HN0A        -0.1280    -0.5120     4.4100 hn         1 0WH       0.444800
     39 H05         -2.4700    -1.6710     3.0150 ha         1 0WH       0.149000
     40 H06         -4.3030    -1.6400     4.6470 ha         1 0WH       0.142000
     41 H08         -7.3450     2.0550     4.7540 h1         1 0WH       0.064700
     42 H09         -6.2360     2.8270     2.9360 hc         1 0WH       0.065700
     43 H11         -4.2240     1.6790     0.9910 ha         1 0WH       0.139000
     44 H13         -5.7530    -2.4140     5.2180 hc         1 0WH       0.078200
     45 H13A        -4.8620    -1.2840     6.2480 hc         1 0WH       0.078200
     46 H15         -7.5290    -3.7990     6.1260 ha         1 0WH       0.136000
     47 H16         -8.4420    -4.9050     8.1310 ha         1 0WH       0.140000
     48 H17         -7.8260    -4.0930    10.3760 ha         1 0WH       0.150000
     49 H19         -5.3740    -1.0750     8.6090 ha         1 0WH       0.143000
     50 H23          3.0860     0.0050     1.0920 h5         1 0WH       0.059100
     51 H191        -8.2540     0.8960     3.7080 h1         1 0WH       0.064700
     52 H20         -7.1450     1.6660     1.8890 hc         1 0WH       0.065700
     53 C12         -6.7630    -0.5780     5.5970 c          1 0WH       0.670100
@<TRIPOS>BOND
     1     1     3 ar  
     2     2    29 1   
     3     5    33 1   
     4     5    34 1   
     5     5    35 1   
     6     7     1 1   
     7     7     5 1   
     8     8     7 1   
     9     8    36 1   
    10     9    29 1   
    11    10    17 1   
    12    11     8 2   
    13    11    30 1   
    14    12    31 1   
    15    12    37 1   
    16    12    38 1   
    17    13    11 1   
    18    14    32 ar  
    19    15    13 ar  
    20    15    39 1   
    21    16    15 ar  
    22    16    40 1   
    23    17    16 ar  
    24    17    20 ar  
    25    18    10 1   
    26    18    19 1   
    27    18    41 1   
    28    19    20 1   
    29    19    42 1   
    30    20    21 ar  
    31    21    13 ar  
    32    21    43 1   
    33    53     4 2   
    34    53    10 1   
    35    22    53 1   
    36    22    44 1   
    37    22    45 1   
    38    23    22 1   
    39    24    23 ar  
    40    24    46 1   
    41    25    24 ar  
    42    25    47 1   
    43    26    25 ar  
    44    26    27 ar  
    45    26    48 1   
    46    27    28 ar  
    47    28    23 ar  
    48    28    49 1   
    49    29     6 1   
    50    29    27 1   
    51    30     1 ar  
    52    30    31 ar  
    53    31    14 ar  
    54    32     3 ar  
    55    32    50 1   
    56    18    51 1   
    57    19    52 1   
@<TRIPOS>SUBSTRUCTURE
     1 0WH         1 TEMP              0 ****  ****    0 ROOT
