@<TRIPOS>MOLECULE
0WH
   53    57     1     0     0
SMALL
bcc


@<TRIPOS>ATOM
      1 C           -0.0290     0.1490     0.2300 ca         1 0WH       0.470800
      2 F          -10.4680     3.5470     8.9680 f          1 0WH      -0.236633
      3 N            1.3410     0.1890     0.3130 nb         1 0WH      -0.741000
      4 O           -6.9910    -2.4140     4.9180 o          1 0WH      -0.593100
      5 C01         -0.3820     0.5740    -2.2260 c3         1 0WH       0.030600
      6 F01         -9.5090     4.1710     7.1270 f          1 0WH      -0.236633
      7 N01         -0.8380     0.2980    -0.9040 na         1 0WH      -0.163100
      8 C02         -2.1750     0.2040    -0.4970 cc         1 0WH      -0.111100
      9 F02        -11.3930     3.1060     7.0570 f          1 0WH      -0.236633
     10 N02         -7.1380    -0.4990     3.6600 n          1 0WH      -0.373000
     11 C03         -2.2530    -0.0270     0.8800 cd         1 0WH      -0.053400
     12 N03         -1.0140    -0.4860     3.7730 nv         1 0WH      -0.953500
     13 C04         -3.4810    -0.1950     1.6270 ca         1 0WH      -0.053800
     14 N04          1.1090    -0.1710     2.7310 nb         1 0WH      -0.795000
     15 C05         -3.7170    -1.3630     2.3610 ca         1 0WH      -0.105000
     16 C06         -4.9040    -1.5540     3.0770 ca         1 0WH      -0.142000
     17 C07         -5.8660    -0.5460     3.0430 ca         1 0WH       0.057600
     18 C08         -7.7990     0.7590     3.3090 c3         1 0WH       0.088000
     19 C09         -6.8120     1.5580     2.4150 c3         1 0WH      -0.037100
     20 C10         -5.6340     0.6480     2.2900 ca         1 0WH      -0.136300
     21 C11         -4.4590     0.8200     1.5900 ca         1 0WH      -0.084000
     22 C13         -8.9800    -1.0990     5.2350 c3         1 0WH      -0.107100
     23 C14         -8.8370    -0.2150     6.4230 ca         1 0WH      -0.093300
     24 C15         -8.0140    -0.6030     7.4890 ca         1 0WH      -0.088000
     25 C16         -7.9000     0.2040     8.6190 ca         1 0WH      -0.129000
     26 C17         -8.6030     1.4070     8.6970 ca         1 0WH      -0.077000
     27 C18         -9.4200     1.7930     7.6330 ca         1 0WH      -0.168300
     28 C19         -9.5410     0.9900     6.4970 ca         1 0WH      -0.083000
     29 C20        -10.1770     3.1140     7.6980 c3         1 0WH       0.687200
     30 C21         -0.8990    -0.0640     1.3750 ca         1 0WH      -0.364400
     31 C22         -0.2610    -0.2270     2.6460 ca         1 0WH       0.733200
     32 C23          1.7970     0.0200     1.5720 ca         1 0WH       0.679900
     33 H01         -1.1560     0.2400    -2.9660 h1         1 0WH       0.056700
     34 H01A         0.5800     0.0270    -2.4180 h1         1 0WH       0.056700
     35 H01B        -0.2010     1.6760    -2.3550 h1         1 0WH       0.056700
     36 H02         -2.9820     0.2920    -1.2270 h4         1 0WH       0.172000
     37 HN03        -1.9860    -0.2910     3.7190 hn         1 0WH       0.433800
     38 HN0A        -0.5800    -0.4380     4.6630 hn         1 0WH       0.433800
     39 H05         -2.9560    -2.1590     2.3710 ha         1 0WH       0.151000
     40 H06         -5.0720    -2.4800     3.6500 ha         1 0WH       0.173000
     41 H08         -8.7460     0.5370     2.7460 h1         1 0WH       0.052200
     42 H09         -7.2720     1.7770     1.4210 hc         1 0WH       0.066200
     43 H11         -4.2770     1.7360     1.0100 ha         1 0WH       0.141000
     44 H13         -9.6870    -0.6560     4.4850 hc         1 0WH       0.083200
     45 H13A        -9.4050    -2.0900     5.5600 hc         1 0WH       0.083200
     46 H15         -7.4550    -1.5520     7.4190 ha         1 0WH       0.162000
     47 H16         -7.2530    -0.1070     9.4540 ha         1 0WH       0.148000
     48 H17         -8.5210     2.0460     9.5900 ha         1 0WH       0.155000
     49 H19        -10.1980     1.3070     5.6720 ha         1 0WH       0.148000
     50 H23          2.9020     0.0480     1.6880 h5         1 0WH       0.048100
     51 H191        -8.0580     1.3320     4.2410 h1         1 0WH       0.052200
     52 H20         -6.5340     2.5260     2.8990 hc         1 0WH       0.066200
     53 C12         -7.6250    -1.3890     4.6020 c          1 0WH       0.675100
@<TRIPOS>BOND
     1     1     3 ar  
     2     1     7 1   
     3     1    30 ar  
     4     2    29 1   
     5     3    32 ar  
     6     4    53 2   
     7     5     7 1   
     8     5    33 1   
     9     5    34 1   
    10     5    35 1   
    11     6    29 1   
    12     7     8 1   
    13     8    11 2   
    14     8    36 1   
    15     9    29 1   
    16    10    17 1   
    17    10    18 1   
    18    10    53 1   
    19    11    13 1   
    20    11    30 1   
    21    12    31 1   
    22    12    37 1   
    23    12    38 1   
    24    13    15 ar  
    25    13    21 ar  
    26    14    31 ar  
    27    14    32 ar  
    28    15    16 ar  
    29    15    39 1   
    30    16    17 ar  
    31    16    40 1   
    32    17    20 ar  
    33    18    19 1   
    34    18    41 1   
    35    18    51 1   
    36    19    20 1   
    37    19    42 1   
    38    19    52 1   
    39    20    21 ar  
    40    21    43 1   
    41    22    23 1   
    42    22    44 1   
    43    22    45 1   
    44    22    53 1   
    45    23    24 ar  
    46    23    28 ar  
    47    24    25 ar  
    48    24    46 1   
    49    25    26 ar  
    50    25    47 1   
    51    26    27 ar  
    52    26    48 1   
    53    27    28 ar  
    54    27    29 1   
    55    28    49 1   
    56    30    31 ar  
    57    32    50 1   
@<TRIPOS>SUBSTRUCTURE
     1 0WH         1 TEMP              0 ****  ****    0 ROOT
