@<TRIPOS>MOLECULE
0WH
   53    57     1     0     0
SMALL
bcc


@<TRIPOS>ATOM
      1 C            0.0000     0.0000     0.0000 ca         1 0WH       0.298800
      2 F           -6.8250    -2.8170    11.9720 f          1 0WH      -0.208300
      3 N            1.3330     0.0000     0.0000 nb         1 0WH      -0.677000
      4 O           -7.7740    -0.3550     6.2290 o          1 0WH      -0.618100
      5 C01         -0.6720     0.0020    -2.4200 c3         1 0WH      -0.012400
      6 F01         -6.5820    -0.7030    11.1400 f          1 0WH      -0.208300
      7 N01         -0.9530     0.0010    -0.9830 na         1 0WH       0.318900
      8 C02         -2.2050     0.0010    -0.4310 cc         1 0WH      -0.259100
      9 F02         -4.8000    -2.1320    11.1660 f          1 0WH      -0.208300
     10 N02         -6.4650     0.1710     4.5170 n          1 0WH       0.016000
     11 C03         -2.1060     0.0010     0.9220 cd         1 0WH      -0.054400
     12 N03         -0.5290     0.0050     3.6530 nv         1 0WH      -0.551500
     13 C04         -3.2260     0.0010     1.8940 ca         1 0WH      -0.025800
     14 N04          1.4130     0.0140     2.3120 nb         1 0WH      -0.726000
     15 C05         -3.2490    -0.9230     2.9380 ca         1 0WH      -0.074000
     16 C06         -4.2900    -0.9200     3.8380 ca         1 0WH      -0.167000
     17 C07         -5.3300     0.0050     3.7150 ca         1 0WH      -0.085400
     18 C08         -7.2840     1.2730     4.0070 c3         1 0WH       0.046000
     19 C09         -6.5320     1.7980     2.7730 c3         1 0WH       0.034900
     20 C10         -5.3030     0.9220     2.6750 ca         1 0WH      -0.138300
     21 C11         -4.2620     0.9250     1.7690 ca         1 0WH      -0.048000
     22 C13         -5.8400    -1.6920     6.0210 c3         1 0WH      -0.055100
     23 C14         -6.3980    -2.3680     7.2460 ca         1 0WH      -0.080300
     24 C15         -7.2570    -3.4430     7.1120 ca         1 0WH      -0.050000
     25 C16         -7.7690    -4.0620     8.2360 ca         1 0WH      -0.103000
     26 C17         -7.4230    -3.6080     9.4950 ca         1 0WH      -0.045000
     27 C18         -6.5640    -2.5330     9.6290 ca         1 0WH      -0.207300
     28 C19         -6.0470    -1.9170     8.5040 ca         1 0WH      -0.024000
     29 C20         -6.1860    -2.0370    11.0020 c3         1 0WH       0.640200
     30 C21         -0.6710     0.0070     1.2350 ca         1 0WH      -0.384400
     31 C22          0.0870     0.0090     2.4140 ca         1 0WH       0.591200
     32 C23          2.0040     0.0000     1.1310 ca         1 0WH       0.680900
     33 H01         -0.3580     0.9920    -2.7270 h1         1 0WH       0.023367
     34 H01A        -1.5680    -0.2770    -2.9630 h1         1 0WH       0.023367
     35 H01B         0.1160    -0.7100    -2.6360 h1         1 0WH       0.023367
     36 H02         -3.1330    -0.0000    -0.9890 h4         1 0WH       0.149000
     37 HN03        -1.3730     0.5250     3.7940 hn         1 0WH       0.279300
     38 HN0A        -0.1280    -0.5120     4.4100 hn         1 0WH       0.279300
     39 H05         -2.4700    -1.6710     3.0150 ha         1 0WH       0.118000
     40 H06         -4.3030    -1.6400     4.6470 ha         1 0WH       0.132000
     41 H08         -7.3450     2.0550     4.7540 h1         1 0WH       0.033200
     42 H09         -6.2360     2.8270     2.9360 hc         1 0WH       0.031200
     43 H11         -4.2240     1.6790     0.9910 ha         1 0WH       0.111000
     44 H13         -5.7530    -2.4140     5.2180 hc         1 0WH       0.047700
     45 H13A        -4.8620    -1.2840     6.2480 hc         1 0WH       0.047700
     46 H15         -7.5290    -3.7990     6.1260 ha         1 0WH       0.106000
     47 H16         -8.4420    -4.9050     8.1310 ha         1 0WH       0.110000
     48 H17         -7.8260    -4.0930    10.3760 ha         1 0WH       0.120000
     49 H19         -5.3740    -1.0750     8.6090 ha         1 0WH       0.114000
     50 H23          3.0860     0.0050     1.0920 h5         1 0WH      -0.005900
     51 H191        -8.2540     0.8960     3.7080 h1         1 0WH       0.033200
     52 H20         -7.1450     1.6660     1.8890 hc         1 0WH       0.031200
     53 C12         -6.7630    -0.5780     5.5970 c          1 0WH       0.579100
@<TRIPOS>BOND
     1     1     3 ar  
     2     1     7 1   
     3     1    30 ar  
     4     2    29 1   
     5     3    32 ar  
     6     4    53 2   
     7     5     7 1   
     8     5    33 1   
     9     5    34 1   
    10     5    35 1   
    11     6    29 1   
    12     7     8 1   
    13     8    11 2   
    14     8    36 1   
    15     9    29 1   
    16    10    17 1   
    17    10    18 1   
    18    10    53 1   
    19    11    13 1   
    20    11    30 1   
    21    12    31 1   
    22    12    37 1   
    23    12    38 1   
    24    13    15 ar  
    25    13    21 ar  
    26    14    31 ar  
    27    14    32 ar  
    28    15    16 ar  
    29    15    39 1   
    30    16    17 ar  
    31    16    40 1   
    32    17    20 ar  
    33    18    19 1   
    34    18    41 1   
    35    18    51 1   
    36    19    20 1   
    37    19    42 1   
    38    19    52 1   
    39    20    21 ar  
    40    21    43 1   
    41    22    23 1   
    42    22    44 1   
    43    22    45 1   
    44    22    53 1   
    45    23    24 ar  
    46    23    28 ar  
    47    24    25 ar  
    48    24    46 1   
    49    25    26 ar  
    50    25    47 1   
    51    26    27 ar  
    52    26    48 1   
    53    27    28 ar  
    54    27    29 1   
    55    28    49 1   
    56    30    31 ar  
    57    32    50 1   
@<TRIPOS>SUBSTRUCTURE
     1 0WH         1 TEMP              0 ****  ****    0 ROOT
