@<TRIPOS>MOLECULE
molecule
   26    26     1     0     0
SMALL
bcc


@<TRIPOS>ATOM
      1 C1           0.0000     0.0000     0.0000 c3         1 0WK       0.113400
      2 C2           1.5310     0.0000     0.0000 c3         1 0WK       0.093100
      3 C3           2.0330     0.0000     1.4470 c3         1 0WK       0.120100
      4 C4           1.4520     1.2140     2.1780 c3         1 0WK       0.105100
      5 C5          -0.0770     1.1680     2.0930 c3         1 0WK       0.126100
      6 C6          -0.6640     2.4080     2.7690 c3         1 0WK       0.234400
      7 O2           2.0090    -1.1670    -0.6710 oh         1 0WK      -0.619800
      8 O3           3.4600     0.0720     1.4580 oh         1 0WK      -0.620800
      9 O4           1.8550     1.1850     3.5480 oh         1 0WK      -0.592800
     10 O5          -0.4760     1.1380     0.7210 os         1 0WK      -0.365600
     11 O6          -2.0890     2.3080     2.7930 os         1 0WK      -0.567200
     12 P           -3.0370     3.4410     3.4330 p5         1 0WK       1.179900
     13 O1P         -2.6270     3.6950     4.8330 o          1 0WK      -0.909167
     14 O2P         -2.9000     4.7990     2.5790 o          1 0WK      -0.909167
     15 O3P         -4.5660     2.9400     3.4040 o          1 0WK      -0.909167
     16 H1          -0.3600    -0.9040     0.4760 h1         1 0WK       0.042200
     17 H2          -0.3600     0.0450    -1.0210 h1         1 0WK       0.042200
     18 H3           1.8910     0.8870    -0.5060 h1         1 0WK       0.047700
     19 H4           1.7090    -0.9080     1.9410 h1         1 0WK       0.051700
     20 H5           1.8110     2.1220     1.7090 h1         1 0WK       0.049700
     21 H6          -0.4370     0.2750     2.5910 h1         1 0WK       0.051700
     22 H7          -0.3730     3.2930     2.2150 h1         1 0WK       0.027200
     23 H8          -0.2890     2.4780     3.7830 h1         1 0WK       0.027200
     24 H9           2.2410    -0.9470    -1.5580 ho         1 0WK       0.391000
     25 H10          3.8110    -0.6970     1.8740 ho         1 0WK       0.394000
     26 H11          2.5390     1.8180     3.6880 ho         1 0WK       0.396000
@<TRIPOS>BOND
     1     8     3 1   
     2     9     4 1   
     3     4     3 1   
     4     4     5 1   
     5     3     2 1   
     6     6     5 1   
     7     6    11 1   
     8     5    10 1   
     9     2     7 1   
    10     2     1 1   
    11    10     1 1   
    12    11    12 1   
    13    13    12 1   
    14    12    14 1   
    15    12    15 1   
    16     1    16 1   
    17     1    17 1   
    18     2    18 1   
    19     3    19 1   
    20     4    20 1   
    21     5    21 1   
    22     6    22 1   
    23     6    23 1   
    24     7    24 1   
    25     8    25 1   
    26     9    26 1   
@<TRIPOS>SUBSTRUCTURE
     1 0WK         1 TEMP              0 ****  ****    0 ROOT
