@<TRIPOS>MOLECULE
0WK
   26    26     1     0     0
SMALL
bcc


@<TRIPOS>ATOM
      1 C1           0.0000     0.0000     0.0000 c3         1 0WK       0.177400
      2 C2           1.5310     0.0000     0.0000 c3         1 0WK       0.129100
      3 C3           2.0330     0.0000     1.4470 c3         1 0WK       0.151100
      4 C4           1.4520     1.2140     2.1780 c3         1 0WK       0.140100
      5 C5          -0.0770     1.1680     2.0930 c3         1 0WK       0.137100
      6 C6          -0.6640     2.4080     2.7690 c3         1 0WK       0.288400
      7 O2           2.0090    -1.1670    -0.6710 oh         1 0WK      -0.600800
      8 O3           3.4600     0.0720     1.4580 oh         1 0WK      -0.601800
      9 O4           1.8550     1.1850     3.5480 oh         1 0WK      -0.572800
     10 O5          -0.4760     1.1380     0.7210 os         1 0WK      -0.348600
     11 O6          -2.0890     2.3080     2.7930 os         1 0WK      -0.467200
     12 P           -3.0370     3.4410     3.4330 p5         1 0WK       0.669900
     13 O1P         -2.6270     3.6950     4.8330 o          1 0WK      -0.756167
     14 O2P         -2.9000     4.7990     2.5790 o          1 0WK      -0.756167
     15 O3P         -4.5660     2.9400     3.4040 o          1 0WK      -0.756167
     16 H1          -0.3600    -0.9040     0.4760 h1         1 0WK       0.002200
     17 H2          -0.3600     0.0450    -1.0210 h1         1 0WK       0.002200
     18 H3           1.8910     0.8870    -0.5060 h1         1 0WK       0.013700
     19 H4           1.7090    -0.9080     1.9410 h1         1 0WK       0.016700
     20 H5           1.8110     2.1220     1.7090 h1         1 0WK       0.015700
     21 H6          -0.4370     0.2750     2.5910 h1         1 0WK       0.016700
     22 H7          -0.2890     2.4780     3.7830 h1         1 0WK      -0.017800
     23 H8          -0.3730     3.2930     2.2150 h1         1 0WK      -0.017800
     24 H9           2.2680    -0.9410    -1.5500 ho         1 0WK       0.377000
     25 H10          3.8110    -0.6990     1.8720 ho         1 0WK       0.381000
     26 H11          2.5380     1.8190     3.6880 ho         1 0WK       0.379000
@<TRIPOS>BOND
     1     1     2 1   
     2     1    10 1   
     3     1    16 1   
     4     1    17 1   
     5     2     3 1   
     6     2     7 1   
     7     2    18 1   
     8     3     4 1   
     9     3     8 1   
    10     3    19 1   
    11     4     5 1   
    12     4     9 1   
    13     4    20 1   
    14     5     6 1   
    15     5    10 1   
    16     5    21 1   
    17     6    11 1   
    18     6    22 1   
    19     6    23 1   
    20     7    24 1   
    21     8    25 1   
    22     9    26 1   
    23    11    12 1   
    24    12    13 1   
    25    12    14 1   
    26    12    15 1   
@<TRIPOS>SUBSTRUCTURE
     1 0WK         1 TEMP              0 ****  ****    0 ROOT
