@<TRIPOS>MOLECULE
molecule
   50    54     1     0     0
SMALL
bcc


@<TRIPOS>ATOM
      1 C1           0.0000     0.0000     0.0000 ca         1 0WL      -0.386600
      2 C2           1.3860     0.0000     0.0000 ca         1 0WL       0.462200
      3 C3          -0.6590     0.0060     1.2200 ca         1 0WL       0.462200
      4 C4           1.3220    -3.1250    10.7190 cc         1 0WL       0.405200
      5 C5           1.0020    -2.0740     9.8400 cd         1 0WL      -0.428900
      6 C6           1.8350    -2.2010     8.7180 cc         1 0WL       0.219100
      7 C7           1.3700     0.0010     2.2970 ca         1 0WL       0.693300
      8 C8           0.0470    -0.9660     9.8680 c          1 0WL       0.735100
      9 C9           0.8720    -0.3310     7.7600 cd         1 0WL       0.530900
     10 C10          4.6930    -5.8240     7.1990 c3         1 0WL      -0.083900
     11 C11          5.6650    -5.2090     8.2270 c3         1 0WL      -0.083900
     12 C12          3.3080    -5.2590     7.6020 c3         1 0WL      -0.095400
     13 C13          4.9970    -3.9260     8.7530 c3         1 0WL      -0.095400
     14 C14          1.8630     1.2140     4.4890 cy         1 0WL       0.119800
     15 C15          1.4650    -0.7780     4.7270 cy         1 0WL       0.119800
     16 C16          2.1420     0.0000     3.5910 cy         1 0WL      -0.136000
     17 C17          3.6410    -3.8070     8.0260 c3         1 0WL       0.077000
     18 C18          1.0060     2.0550     7.1030 c3         1 0WL      -0.101100
     19 C19          0.8170     0.6240     6.5970 c3         1 0WL       0.102200
     20 N20          2.0300     0.0000     1.1550 nb         1 0WL      -0.736500
     21 N21          0.0530     0.0110     2.3350 nb         1 0WL      -0.736500
     22 N22          2.2770    -3.8330    10.1820 nd         1 0WL      -0.504800
     23 N23          1.7270    -1.3100     7.7190 nc         1 0WL      -0.641100
     24 N24          2.6160    -3.2900     8.9350 na         1 0WL       0.094400
     25 N25          0.0280    -0.1300     8.8040 ns         1 0WL      -0.471400
     26 N26          1.8860     0.2970     5.6440 nq         1 0WL      -0.626600
     27 H1          -0.5550    -0.0020    -0.9300 ha         1 0WL       0.148000
     28 H2           1.9340    -0.0030    -0.9340 h4         1 0WL       0.031600
     29 H3          -1.7410     0.0100     1.2590 h4         1 0WL       0.031600
     30 H4           0.8590    -3.3100    11.6810 h4         1 0WL       0.062100
     31 H6           4.6960    -6.9050     7.2760 hc         1 0WL       0.046700
     32 H7           5.8280    -5.9020     9.0430 hc         1 0WL       0.046700
     33 H8           6.6050    -4.9660     7.7460 hc         1 0WL       0.046700
     34 H9           2.6320    -5.2640     6.7560 hc         1 0WL       0.061200
     35 H10          2.8960    -5.8150     8.4350 hc         1 0WL       0.061200
     36 H11          5.6150    -3.0670     8.5250 hc         1 0WL       0.061200
     37 H12          4.8380    -4.0040     9.8220 hc         1 0WL       0.061200
     38 H13          2.6790     1.9270     4.5000 h1         1 0WL       0.069950
     39 H14          0.8870     1.6510     4.3160 h1         1 0WL       0.069950
     40 H15          0.3890    -0.8390     4.6130 h1         1 0WL       0.069950
     41 H16          1.9490    -1.7240     4.9360 h1         1 0WL       0.069950
     42 H17          3.1980    -0.2220     3.4930 hc         1 0WL       0.109700
     43 H18          3.7360    -3.1720     7.1540 h1         1 0WL       0.091700
     44 H19          1.0060     2.0580     8.1870 hc         1 0WL       0.052033
     45 H20          0.1960     2.6770     6.7410 hc         1 0WL       0.052033
     46 H21          1.9500     2.4450     6.7410 hc         1 0WL       0.052033
     47 H22         -0.1440     0.5390     6.1050 h1         1 0WL       0.056700
     48 H23         -0.6110     0.6400     8.7870 hn         1 0WL       0.338500
     49 O27         -0.7040    -0.8020    10.8130 o          1 0WL      -0.632500
     50 H5           4.9530    -5.5080     6.1970 hc         1 0WL       0.046700
@<TRIPOS>BOND
     1     3    21 ar
     2     3     1 ar
     3    21     7 ar
     4     1     2 ar
     5     7    16 1
     6     7    20 ar
     7     2    20 ar
     8    16    14 1
     9    16    15 1
    10    10    11 1
    11    10    12 1
    12    14    26 1
    13    11    13 1
    14    15    26 1
    15    12    17 1
    16    26    19 1
    17    13    17 1
    18    17    24 1
    19    19    18 1
    20    19     9 1
    21    23     9 2
    22    23     6 1
    23    24     6 1
    24    24    22 1
    25     9    25 1
    26     6     5 2
    27    22     4 2
    28    25     8 1
    29     5     4 1
    30     5     8 1
    31     8    49 2
    32     1    27 1
    33     2    28 1
    34     3    29 1
    35     4    30 1
    36    10    50 1
    37    10    31 1
    38    11    32 1
    39    11    33 1
    40    12    34 1
    41    12    35 1
    42    13    36 1
    43    13    37 1
    44    14    38 1
    45    14    39 1
    46    15    40 1
    47    15    41 1
    48    16    42 1
    49    17    43 1
    50    18    44 1
    51    18    45 1
    52    18    46 1
    53    19    47 1
    54    25    48 1
@<TRIPOS>SUBSTRUCTURE
     1 0WL         1 TEMP              0 ****  ****    0 ROOT
