@<TRIPOS>MOLECULE
0WL
   50    54     1     0     0
SMALL
bcc


@<TRIPOS>ATOM
      1 C1           2.7920    -0.5620    -1.4920 ca         1 0WL      -0.362600
      2 C2           3.6500    -0.3800    -0.3920 ca         1 0WL       0.432200
      3 C3           1.4120    -0.5540    -1.2180 ca         1 0WL       0.432200
      4 C4           5.3110     4.9060     7.2760 cc         1 0WL       0.377200
      5 C5           5.0740     3.8650     6.3150 cc         1 0WL      -0.375900
      6 C6           4.4340     2.8130     7.0610 cd         1 0WL       0.172100
      7 C7           1.8330    -0.2130     1.0320 ca         1 0WL       0.651300
      8 C8           5.3190     3.6880     4.9070 c          1 0WL       0.749100
      9 C9           4.2720     1.4730     5.2090 cc         1 0WL       0.506900
     10 C10          2.4250     2.7360    11.5420 c3         1 0WL      -0.079400
     11 C11          3.7840     2.1440    11.8940 c3         1 0WL      -0.079400
     12 C12          2.4930     3.2300    10.1040 c3         1 0WL      -0.091900
     13 C13          4.6780     2.2760    10.6700 c3         1 0WL      -0.091900
     14 C14          1.8870    -0.9810     3.4970 cy         1 0WL       0.148800
     15 C15          1.9360     1.1380     3.2360 cy         1 0WL       0.148800
     16 C16          1.2930    -0.0220     2.4240 cy         1 0WL      -0.152000
     17 C17          3.7270     2.5420     9.4840 c3         1 0WL       0.069000
     18 C18          4.3000    -1.0310     5.3490 c3         1 0WL      -0.087100
     19 C19          3.8540     0.1590     4.5000 c3         1 0WL       0.139200
     20 N20          3.1950    -0.2070     0.8640 nb         1 0WL      -0.699000
     21 N21          0.9180    -0.3830     0.0230 nb         1 0WL      -0.699000
     22 N22          4.8560     4.5190     8.4910 nd         1 0WL      -0.509800
     23 N23          4.0270     1.6010     6.5100 nd         1 0WL      -0.598100
     24 N24          4.3350     3.2770     8.3810 na         1 0WL       0.114400
     25 N25          4.8780     2.4360     4.4010 ns         1 0WL      -0.497400
     26 N26          2.4170     0.1770     4.2600 nq         1 0WL      -0.690600
     27 H1           3.1780    -0.7010    -2.5070 ha         1 0WL       0.159000
     28 H2           4.7480    -0.3720    -0.5140 h4         1 0WL       0.031100
     29 H3           0.6640    -0.6890    -2.0210 h4         1 0WL       0.031100
     30 H4           5.7810     5.8770     7.1080 h4         1 0WL       0.057100
     31 H6           2.1680     3.5790    12.2310 hc         1 0WL       0.045450
     32 H7           3.6750     1.0680    12.1830 hc         1 0WL       0.045450
     33 H8           4.2360     2.6780    12.7660 hc         1 0WL       0.045450
     34 H9           1.5710     2.9590     9.5330 hc         1 0WL       0.060450
     35 H10          2.5920     4.3440    10.0840 hc         1 0WL       0.060450
     36 H11          5.4020     3.1190    10.8120 hc         1 0WL       0.060450
     37 H12          5.2700     1.3450    10.4910 hc         1 0WL       0.060450
     38 H13          2.6470    -1.7020     3.1130 h1         1 0WL       0.067950
     39 H14          1.1170    -1.5220     4.0980 h1         1 0WL       0.067950
     40 H15          2.7220     1.7150     2.6940 h1         1 0WL       0.067950
     41 H16          1.1930     1.8410     3.6840 h1         1 0WL       0.067950
     42 H17          0.1770     0.0040     2.4230 hc         1 0WL       0.100700
     43 H18          3.4030     1.5470     9.0570 h1         1 0WL       0.088700
     44 H19          3.7190    -1.0980     6.3000 hc         1 0WL       0.052367
     45 H20          4.1590    -1.9800     4.7770 hc         1 0WL       0.052367
     46 H21          5.3830    -0.9180     5.5960 hc         1 0WL       0.052367
     47 H22          4.4270     0.0970     3.5190 h1         1 0WL       0.045700
     48 H23          5.0070     2.2510     3.4300 hn         1 0WL       0.336500
     49 O27          5.8530     4.4870     4.1180 o          1 0WL      -0.627500
     50 H5           1.6240     1.9620    11.6510 hc         1 0WL       0.045450
@<TRIPOS>BOND
     1     1     2 ar  
     2     1     3 ar  
     3     1    27 1   
     4     2    20 ar  
     5     2    28 1   
     6     3    21 ar  
     7     3    29 1   
     8     4     5 1   
     9     4    22 2   
    10     4    30 1   
    11     5     6 2   
    12     5     8 1   
    13     6    23 1   
    14     6    24 1   
    15     7    16 1   
    16     7    20 ar  
    17     7    21 ar  
    18     8    25 1   
    19     8    49 2   
    20     9    19 1   
    21     9    23 2   
    22     9    25 1   
    23    10    11 1   
    24    10    12 1   
    25    10    31 1   
    26    10    50 1   
    27    11    13 1   
    28    11    32 1   
    29    11    33 1   
    30    12    17 1   
    31    12    34 1   
    32    12    35 1   
    33    13    17 1   
    34    13    36 1   
    35    13    37 1   
    36    14    16 1   
    37    14    26 1   
    38    14    38 1   
    39    14    39 1   
    40    15    16 1   
    41    15    26 1   
    42    15    40 1   
    43    15    41 1   
    44    16    42 1   
    45    17    24 1   
    46    17    43 1   
    47    18    19 1   
    48    18    44 1   
    49    18    45 1   
    50    18    46 1   
    51    19    26 1   
    52    19    47 1   
    53    22    24 1   
    54    25    48 1   
@<TRIPOS>SUBSTRUCTURE
     1 0WL         1 TEMP              0 ****  ****    0 ROOT
