@<TRIPOS>MOLECULE
0WL
   50    54     1     0     0
SMALL
bcc


@<TRIPOS>ATOM
      1 C1           0.0000     0.0000     0.0000 ca         1 0WL      -0.349600
      2 C2           1.3860     0.0000     0.0000 ca         1 0WL       0.443700
      3 C3          -0.6590     0.0060     1.2200 ca         1 0WL       0.443700
      4 C4           1.3220    -3.1250    10.7190 cc         1 0WL       0.482200
      5 C5           1.0020    -2.0740     9.8400 cc         1 0WL      -0.451900
      6 C6           1.8350    -2.2010     8.7180 cd         1 0WL       0.010100
      7 C7           1.3700     0.0010     2.2970 ca         1 0WL       0.608300
      8 C8           0.0470    -0.9660     9.8680 c          1 0WL       0.656100
      9 C9           0.8720    -0.3310     7.7600 cc         1 0WL       0.304900
     10 C10          4.6930    -5.8240     7.1990 c3         1 0WL      -0.020400
     11 C11          5.6650    -5.2090     8.2270 c3         1 0WL      -0.020400
     12 C12          3.3080    -5.2590     7.6020 c3         1 0WL      -0.038400
     13 C13          4.9970    -3.9260     8.7530 c3         1 0WL      -0.038400
     14 C14          1.8630     1.2140     4.4890 cy         1 0WL       0.134300
     15 C15          1.4650    -0.7780     4.7270 cy         1 0WL       0.134300
     16 C16          2.1420     0.0000     3.5910 cy         1 0WL      -0.126000
     17 C17          3.6410    -3.8070     8.0260 c3         1 0WL      -0.050000
     18 C18          1.0060     2.0550     7.1030 c3         1 0WL      -0.013100
     19 C19          0.8170     0.6240     6.5970 c3         1 0WL       0.087200
     20 N20          2.0300     0.0000     1.1550 nb         1 0WL      -0.618000
     21 N21          0.0530     0.0110     2.3350 nb         1 0WL      -0.618000
     22 N22          2.2770    -3.8330    10.1820 nd         1 0WL      -0.649800
     23 N23          1.7270    -1.3100     7.7190 nd         1 0WL      -0.507100
     24 N24          2.6160    -3.2900     8.9350 na         1 0WL       0.531400
     25 N25          0.0280    -0.1300     8.8040 ns         1 0WL      -0.008400
     26 N26          1.8860     0.2970     5.6440 nq         1 0WL      -0.507600
     27 H1          -0.5550    -0.0020    -0.9300 ha         1 0WL       0.125000
     28 H2           1.9340    -0.0030    -0.9340 h4         1 0WL      -0.013400
     29 H3          -1.7410     0.0100     1.2590 h4         1 0WL      -0.013400
     30 H4           0.8590    -3.3100    11.6810 h4         1 0WL       0.013100
     31 H6           4.6960    -6.9050     7.2760 hc         1 0WL       0.016950
     32 H7           5.8280    -5.9020     9.0430 hc         1 0WL       0.016950
     33 H8           6.6050    -4.9660     7.7460 hc         1 0WL       0.016950
     34 H9           2.6320    -5.2640     6.7560 hc         1 0WL       0.030700
     35 H10          2.8960    -5.8150     8.4350 hc         1 0WL       0.030700
     36 H11          5.6150    -3.0670     8.5250 hc         1 0WL       0.030700
     37 H12          4.8380    -4.0040     9.8220 hc         1 0WL       0.030700
     38 H13          2.6790     1.9270     4.5000 h1         1 0WL       0.036700
     39 H14          0.8870     1.6510     4.3160 h1         1 0WL       0.036700
     40 H15          0.3890    -0.8390     4.6130 h1         1 0WL       0.036700
     41 H16          1.9490    -1.7240     4.9360 h1         1 0WL       0.036700
     42 H17          3.1980    -0.2220     3.4930 hc         1 0WL       0.076700
     43 H18          3.7360    -3.1720     7.1540 h1         1 0WL       0.063700
     44 H19          1.0060     2.0580     8.1870 hc         1 0WL       0.017367
     45 H20          0.1960     2.6770     6.7410 hc         1 0WL       0.017367
     46 H21          1.9500     2.4450     6.7410 hc         1 0WL       0.017367
     47 H22         -0.1440     0.5390     6.1050 h1         1 0WL       0.031700
     48 H23         -0.6110     0.6400     8.7870 hn         1 0WL       0.184500
     49 O27         -0.7040    -0.8020    10.8130 o          1 0WL      -0.672500
     50 H5           4.9530    -5.5080     6.1970 hc         1 0WL       0.016950
@<TRIPOS>BOND
     1     1     2 ar  
     2     1     3 ar  
     3     1    27 1   
     4     2    20 ar  
     5     2    28 1   
     6     3    21 ar  
     7     3    29 1   
     8     4     5 1   
     9     4    22 2   
    10     4    30 1   
    11     5     6 2   
    12     5     8 1   
    13     6    23 1   
    14     6    24 1   
    15     7    16 1   
    16     7    20 ar  
    17     7    21 ar  
    18     8    25 1   
    19     8    49 2   
    20     9    19 1   
    21     9    23 2   
    22     9    25 1   
    23    10    11 1   
    24    10    12 1   
    25    10    31 1   
    26    10    50 1   
    27    11    13 1   
    28    11    32 1   
    29    11    33 1   
    30    12    17 1   
    31    12    34 1   
    32    12    35 1   
    33    13    17 1   
    34    13    36 1   
    35    13    37 1   
    36    14    16 1   
    37    14    26 1   
    38    14    38 1   
    39    14    39 1   
    40    15    16 1   
    41    15    26 1   
    42    15    40 1   
    43    15    41 1   
    44    16    42 1   
    45    17    24 1   
    46    17    43 1   
    47    18    19 1   
    48    18    44 1   
    49    18    45 1   
    50    18    46 1   
    51    19    26 1   
    52    19    47 1   
    53    22    24 1   
    54    25    48 1   
@<TRIPOS>SUBSTRUCTURE
     1 0WL         1 TEMP              0 ****  ****    0 ROOT
