@<TRIPOS>MOLECULE
molecule
   59    62     1     0     0
SMALL
bcc


@<TRIPOS>ATOM
      1 C1           0.0000     0.0000     0.0000 ca         1 0WM       0.728900
      2 N2           1.3230     0.0000     0.0000 nb         1 0WM      -0.827000
      3 N3          -0.7140    -0.0020     1.1010 nb         1 0WM      -0.774000
      4 C4           2.0170     0.0000     1.1310 ca         1 0WM       0.748200
      5 C5          -0.1130    -0.0020     2.3010 ca         1 0WM       0.495600
      6 C6           1.3040    -0.0020     2.3530 ca         1 0WM      -0.331600
      7 C7           1.2090    -0.0050     4.7500 ca         1 0WM       0.026600
      8 C8           1.9550    -0.0030     3.5920 ca         1 0WM      -0.081000
      9 C9          -0.1940    -0.0060     4.6930 ca         1 0WM       0.149100
     10 C10         -0.8470    -0.0050     3.4940 ca         1 0WM      -0.278300
     11 N11          3.3970    -0.0000     1.1170 nu         1 0WM      -0.754300
     12 C12          4.2640     1.0720    -2.2930 ca         1 0WM       0.002400
     13 C13          5.4470     0.3790    -2.4930 ca         1 0WM       0.122900
     14 C14          3.5830     0.9490    -1.0950 ca         1 0WM      -0.092000
     15 C15          5.9470    -0.4420    -1.4960 ca         1 0WM      -0.143000
     16 C16          4.0830     0.1270    -0.0960 ca         1 0WM       0.149600
     17 C17          5.2670    -0.5720    -0.3010 ca         1 0WM      -0.139000
     18 Cl1          3.6390     2.1020    -3.5440 cl         1 0WM      -0.083400
     19 O20         -0.9110    -0.0080     5.8480 os         1 0WM      -0.325900
     20 C21         -2.3350    -0.0190     5.7270 c3         1 0WM       0.103100
     21 C22         -2.8830     1.4140     5.5530 c3         1 0WM       0.104400
     22 O23         -4.0780     1.5180     6.3350 os         1 0WM      -0.411600
     23 C24         -4.3650     0.2580     6.9630 c3         1 0WM       0.130400
     24 C25         -2.9990    -0.4680     7.0570 c3         1 0WM      -0.113400
     25 N26          1.8540    -0.0070     5.9920 ns         1 0WM      -0.456100
     26 C27          3.1080     0.4730     6.1000 c          1 0WM       0.670300
     27 C28          3.8280     0.3680     7.3790 ce         1 0WM      -0.258200
     28 O29          3.6460     0.9930     5.1410 o          1 0WM      -0.621100
     29 C30          5.0660     0.8430     7.4860 c2         1 0WM      -0.063200
     30 C31          5.8030     0.7340     8.7950 c3         1 0WM       0.182000
     31 N32          7.0860     0.0510     8.5810 n3         1 0WM      -0.727600
     32 C33          7.9800     0.8610     7.7420 c3         1 0WM       0.148600
     33 C34          7.7250    -0.2840     9.8610 c3         1 0WM       0.148600
     34 H1          -0.5170     0.0000    -0.9520 h5         1 0WM       0.059100
     35 H8           3.0370    -0.0020     3.6400 ha         1 0WM       0.175000
     36 H10         -1.9300    -0.0060     3.4650 ha         1 0WM       0.162000
     37 HN11         3.9060    -0.1160     1.9700 hn         1 0WM       0.470800
     38 H14          2.6580     1.4920    -0.9390 ha         1 0WM       0.176000
     39 H15          6.8710    -0.9850    -1.6540 ha         1 0WM       0.152000
     40 H17          5.6590    -1.2140     0.4790 ha         1 0WM       0.140000
     41 H21         -2.6540    -0.6520     4.9080 h1         1 0WM       0.069700
     42 H22         -2.1510     2.1320     5.9060 h1         1 0WM       0.061700
     43 H22A        -3.1100     1.5960     4.5100 h1         1 0WM       0.061700
     44 H24         -4.7730     0.4180     7.9540 h1         1 0WM       0.053700
     45 H24A        -5.0530    -0.3160     6.3540 h1         1 0WM       0.053700
     46 H25         -2.4320    -0.1170     7.9110 hc         1 0WM       0.068700
     47 H25A        -3.1320    -1.5420     7.0810 hc         1 0WM       0.068700
     48 HN26         1.4020    -0.4090     6.7900 hn         1 0WM       0.338500
     49 H28          3.3510    -0.0960     8.2330 ha         1 0WM       0.131000
     50 H30          5.5440     1.3070     6.6320 ha         1 0WM       0.155000
     51 H31          5.9850     1.7260     9.1910 h1         1 0WM       0.045700
     52 H31A         5.2060     0.1680     9.5000 h1         1 0WM       0.045700
     53 H33          7.8500     0.5830     6.7030 h1         1 0WM       0.035033
     54 H33A         9.0080     0.6860     8.0360 h1         1 0WM       0.035033
     55 H33B         7.7420     1.9100     7.8680 h1         1 0WM       0.035033
     56 H34          7.0680    -0.9240    10.4360 h1         1 0WM       0.035033
     57 H34A         7.9200     0.6250    10.4160 h1         1 0WM       0.035033
     58 H34B         8.6590    -0.8000     9.6740 h1         1 0WM       0.035033
     59 F18          6.1130     0.5050    -3.6610 f          1 0WM      -0.129900
@<TRIPOS>BOND
     1     1     2 ar  
     2     1     3 ar  
     3     1    34 1   
     4     2     4 ar  
     5     3     5 ar  
     6     4    11 1   
     7     4     6 ar  
     8     5     6 ar  
     9     5    10 ar  
    10     6     8 ar  
    11     8     7 ar  
    12     7     9 ar  
    13     7    25 1   
    14     8    35 1   
    15    10     9 ar  
    16     9    19 1   
    17    10    36 1   
    18    11    16 1   
    19    11    37 1   
    20    13    12 ar  
    21    14    12 ar  
    22    12    18 1   
    23    15    13 ar  
    24    13    59 1   
    25    16    14 ar  
    26    14    38 1   
    27    17    15 ar  
    28    15    39 1   
    29    17    16 ar  
    30    17    40 1   
    31    19    20 1   
    32    20    21 1   
    33    20    24 1   
    34    20    41 1   
    35    21    22 1   
    36    21    42 1   
    37    21    43 1   
    38    22    23 1   
    39    24    23 1   
    40    23    44 1   
    41    23    45 1   
    42    24    46 1   
    43    24    47 1   
    44    25    26 1   
    45    25    48 1   
    46    28    26 2   
    47    26    27 1   
    48    27    29 2   
    49    27    49 1   
    50    29    30 1   
    51    29    50 1   
    52    31    30 1   
    53    30    51 1   
    54    30    52 1   
    55    32    31 1   
    56    33    31 1   
    57    32    53 1   
    58    32    54 1   
    59    32    55 1   
    60    33    56 1   
    61    33    57 1   
    62    33    58 1   
@<TRIPOS>SUBSTRUCTURE
     1 0WM         1 TEMP              0 ****  ****    0 ROOT
