@<TRIPOS>MOLECULE
0WM
   60    65     1     0     0
SMALL
bcc


@<TRIPOS>ATOM
      1 C1           0.0000     0.0000     0.0000 c2         1 0WM       0.047000
      2 N2           1.3230     0.0000     0.0000 n2         1 0WM      -0.193000
      3 N3          -0.7140    -0.0020     1.1010 n2         1 0WM      -0.156000
      4 C4           2.0170     0.0000     1.1310 c2         1 0WM       0.033000
      5 C5          -0.1130    -0.0020     2.3010 ca         1 0WM       0.095000
      6 C6           1.3040    -0.0020     2.3530 ca         1 0WM      -0.213000
      7 C7           1.2090    -0.0050     4.7500 ca         1 0WM      -0.170000
      8 C8           1.9550    -0.0030     3.5920 ca         1 0WM      -0.035000
      9 C9          -0.1940    -0.0060     4.6930 ca         1 0WM       0.126000
     10 C10         -0.8470    -0.0050     3.4940 ca         1 0WM      -0.200000
     11 N11          3.3970    -0.0000     1.1170 nu         1 0WM       0.203000
     12 C12          4.2640     1.0720    -2.2930 ca         1 0WM      -0.139000
     13 C13          5.4470     0.3790    -2.4930 ca         1 0WM       0.075000
     14 C14          3.5830     0.9490    -1.0950 ca         1 0WM      -0.064000
     15 C15          5.9470    -0.4420    -1.4960 ca         1 0WM      -0.116000
     16 C16          4.0830     0.1270    -0.0960 ca         1 0WM      -0.091000
     17 C17          5.2670    -0.5720    -0.3010 ca         1 0WM      -0.116000
     18 O20         -0.9110    -0.0080     5.8480 os         1 0WM      -0.201000
     19 C21         -2.3350    -0.0190     5.7270 c3         1 0WM       0.004000
     20 C22         -2.8830     1.4140     5.5530 c3         1 0WM       0.005000
     21 O23         -4.0780     1.5180     6.3350 os         1 0WM      -0.236000
     22 C24         -4.3650     0.2580     6.9630 c3         1 0WM       0.066000
     23 C25         -2.9990    -0.4680     7.0570 c3         1 0WM      -0.149000
     24 N26          1.8540    -0.0070     5.9920 nu         1 0WM       0.170000
     25 C27          3.1080     0.4730     6.1000 c3         1 0WM       0.308000
     26 C28          3.8280     0.3680     7.3790 c2         1 0WM      -0.126000
     27 O29          3.6460     0.9930     5.1410 o          1 0WM      -0.394000
     28 C30          5.0660     0.8430     7.4860 c2         1 0WM      -0.086000
     29 C31          5.8030     0.7340     8.7950 DU         1 0WM      -0.140000
     30 N32          7.0860     0.0510     8.5810 nx         1 0WM       0.641000
     31 C33          7.9800     0.8610     7.7420 c3         1 0WM      -0.252500
     32 C34          7.7250    -0.2840     9.8610 c3         1 0WM      -0.252500
     33 H1          -0.5170     0.0000    -0.9520 h5         1 0WM       0.140000
     34 H8           3.0370    -0.0020     3.6400 ha         1 0WM       0.146000
     35 H10         -1.9300    -0.0060     3.4650 ha         1 0WM       0.154000
     36 HN11         3.9070    -0.1040     1.9720 hn         1 0WM       0.086000
     37 H14          2.6930     1.5400    -0.9150 ha         1 0WM       0.143000
     38 H15          6.8720    -0.9820    -1.6530 ha         1 0WM       0.124000
     39 H17          5.7690    -1.2610     0.3670 ha         1 0WM       0.112000
     40 H21         -2.6540    -0.6520     4.9080 h1         1 0WM       0.085000
     41 H22         -2.1620     2.2220     5.5110 h1         1 0WM       0.075000
     42 H22A        -3.1230     0.8960     4.6330 h1         1 0WM       0.075000
     43 H24         -5.0530    -0.3160     6.3540 h1         1 0WM       0.056000
     44 H24A        -4.7730     0.4180     7.9540 h1         1 0WM       0.056000
     45 H25         -3.1320    -1.5420     7.0810 hc         1 0WM       0.072500
     46 H25A        -2.4320    -0.1170     7.9110 hc         1 0WM       0.072500
     47 HN26         1.4030    -0.4100     6.7900 hn         1 0WM       0.100000
     48 H28          3.3550     1.2730     7.0160 DU         1 0WM       0.077000
     49 H30          4.9010     1.4930     8.3360 DU         1 0WM       0.012000
     50 H31          5.9850     1.7260     9.1910 hx         1 0WM       0.113500
     51 H31A         5.2060     0.1680     9.5000 hx         1 0WM       0.113500
     52 H33          8.0520     1.8610     8.1520 hx         1 0WM       0.109667
     53 H33A         8.9640     0.4080     7.7200 hx         1 0WM       0.109667
     54 H33B         7.5840     0.9110     6.7350 hx         1 0WM       0.109667
     55 H34          8.6520    -0.8140     9.6740 hx         1 0WM       0.109667
     56 H34A         7.9350     0.6260    10.4090 hx         1 0WM       0.109667
     57 H34B         7.0610    -0.9120    10.4430 hx         1 0WM       0.109667
     58 F18          6.1130     0.5050    -3.6610 f          1 0WM      -0.082000
     59 H321         6.9020    -0.8050     8.0960 hn         1 0WM       0.062000
     60 Cl1          3.6390     2.1020    -3.5440 cl         1 0WM       0.104000
@<TRIPOS>BOND
     1     1     2 1   
     2     1     3 1   
     3     1    33 1   
     4     2     4 1   
     5     3     5 1   
     6     4     6 1   
     7     4    11 1   
     8     5     6 1   
     9     5    10 1   
    10     6     8 1   
    11     7     8 1   
    12     7     9 1   
    13     7    24 1   
    14     8    34 1   
    15     9    10 1   
    16     9    18 1   
    17    10    35 1   
    18    11    16 1   
    19    11    36 1   
    20    12    13 1   
    21    12    14 1   
    22    12    60 1   
    23    13    15 1   
    24    13    58 1   
    25    14    16 1   
    26    14    37 1   
    27    15    17 1   
    28    15    38 1   
    29    16    17 1   
    30    17    39 1   
    31    18    19 1   
    32    19    20 1   
    33    19    23 1   
    34    19    40 1   
    35    20    21 1   
    36    20    41 1   
    37    20    42 1   
    38    21    22 1   
    39    22    23 1   
    40    22    43 1   
    41    22    44 1   
    42    23    45 1   
    43    23    46 1   
    44    24    25 1   
    45    24    47 1   
    46    25    26 1   
    47    25    27 1   
    48    25    48 1   
    49    26    28 1   
    50    26    48 1   
    51    28    29 1   
    52    28    49 1   
    53    29    30 1   
    54    29    49 1   
    55    29    50 1   
    56    29    51 1   
    57    30    31 1   
    58    30    32 1   
    59    30    59 1   
    60    31    52 1   
    61    31    53 1   
    62    31    54 1   
    63    32    55 1   
    64    32    56 1   
    65    32    57 1   
@<TRIPOS>SUBSTRUCTURE
     1 0WM         1 TEMP              0 ****  ****    0 ROOT
