@<TRIPOS>MOLECULE
0WM
   60    63     1     0     0
SMALL
bcc


@<TRIPOS>ATOM
      1 C1           0.1860    -0.3190     0.1180 ca         1 0WM       0.688900
      2 N2           1.5580    -0.3420     0.1000 nb         1 0WM      -0.760000
      3 N3          -0.6260    -0.2350     1.1740 nb         1 0WM      -0.717000
      4 C4           2.1860    -0.2930     1.2980 ca         1 0WM       0.705200
      5 C5          -0.0070    -0.1890     2.4080 ca         1 0WM       0.467600
      6 C6           1.4150    -0.2310     2.5440 ca         1 0WM      -0.305600
      7 C7           1.2240    -0.1490     4.9780 ca         1 0WM       0.003600
      8 C8           1.9990    -0.2350     3.8290 ca         1 0WM      -0.079000
      9 C9          -0.2140    -0.0640     4.8320 ca         1 0WM       0.136100
     10 C10         -0.8040    -0.1020     3.5900 ca         1 0WM      -0.249300
     11 N11          3.5800    -0.3480     1.3740 nu         1 0WM      -0.722300
     12 C12          5.1440    -1.3440    -1.8650 ca         1 0WM      -0.009600
     13 C13          6.1900    -0.4010    -1.9570 ca         1 0WM       0.129900
     14 C14          4.2660    -1.3150    -0.7790 ca         1 0WM      -0.084000
     15 C15          6.3360     0.5670    -0.9450 ca         1 0WM      -0.143000
     16 C16          4.4130    -0.3430     0.2290 ca         1 0WM       0.119600
     17 C17          5.4600     0.6000     0.1280 ca         1 0WM      -0.142000
     18 O20         -0.9130     0.0380     6.0190 os         1 0WM      -0.353900
     19 C21         -2.3380     0.2020     5.9380 c3         1 0WM       0.116100
     20 C22         -2.7850     0.5660     7.3650 c3         1 0WM       0.127400
     21 O23         -3.4270    -0.5740     7.9310 os         1 0WM      -0.417600
     22 C24         -3.7930    -1.4970     6.8970 c3         1 0WM       0.126400
     23 C25         -3.0500    -1.1170     5.6200 c3         1 0WM      -0.140400
     24 N26          1.7720    -0.1820     6.2790 ns         1 0WM      -0.428100
     25 C27          3.0670     0.1170     6.6220 c          1 0WM       0.649300
     26 C28          3.3860     0.0790     8.0900 ce         1 0WM      -0.131200
     27 O29          3.9730     0.3910     5.8080 o          1 0WM      -0.598100
     28 C30          4.6240    -0.2410     8.4810 c2         1 0WM      -0.210200
     29 C31          5.0220    -0.3220     9.9130 c3         1 0WM       0.149000
     30 N32          6.3150     0.4020    10.1840 nx         1 0WM      -0.680400
     31 C33          6.1590     1.8680     9.9950 c3         1 0WM       0.081100
     32 C34          6.8100     0.0910    11.5500 c3         1 0WM       0.081100
     33 F18          7.0580    -0.4060    -2.9940 f          1 0WM      -0.118900
     34 Cl1          4.9250    -2.5330    -3.0540 cl         1 0WM      -0.052400
     35 H1          -0.2920    -0.3640    -0.8860 h5         1 0WM       0.066100
     36 H8           3.0940    -0.3230     3.9340 ha         1 0WM       0.166000
     37 H10         -1.9000    -0.0740     3.4780 ha         1 0WM       0.170000
     38 HN11         3.9730     0.1160     2.1670 hn         1 0WM       0.434800
     39 H14          3.4550    -2.0600    -0.7250 ha         1 0WM       0.171000
     40 H15          7.1510     1.3020    -1.0240 ha         1 0WM       0.157000
     41 H17          5.5930     1.3740     0.9010 ha         1 0WM       0.138000
     42 H21         -2.5800     1.0150     5.2060 h1         1 0WM       0.077700
     43 H22         -1.9220     0.8120     8.0340 h1         1 0WM       0.062700
     44 H22A        -3.5180     1.4130     7.3390 h1         1 0WM       0.062700
     45 H24         -3.5090    -2.5110     7.2760 h1         1 0WM       0.059200
     46 H24A        -4.9040    -1.4380     6.7650 h1         1 0WM       0.059200
     47 H25         -3.7610    -0.9850     4.7690 hc         1 0WM       0.074200
     48 H25A        -2.3080    -1.9040     5.3350 hc         1 0WM       0.074200
     49 HN26         1.1070    -0.3320     7.0100 hn         1 0WM       0.341500
     50 H28          2.5780     0.3380     8.7940 ha         1 0WM       0.153000
     51 H30          5.3940    -0.5070     7.7310 ha         1 0WM       0.173000
     52 H31          5.1760    -1.4060    10.1970 hx         1 0WM       0.109700
     53 H31A         4.2360     0.1190    10.5910 hx         1 0WM       0.109700
     54 H33          5.4400     2.2710    10.7560 hx         1 0WM       0.108200
     55 H33A         5.7620     2.0640     8.9610 hx         1 0WM       0.108200
     56 H33B         7.1570     2.3670    10.1190 hx         1 0WM       0.108200
     57 H34          6.0480     0.4120    12.3090 hx         1 0WM       0.108200
     58 H34A         6.9890    -1.0140    11.6410 hx         1 0WM       0.108200
     59 H34B         7.7720     0.6430    11.7290 hx         1 0WM       0.108200
     60 H321         7.0100     0.0670     9.5010 hn         1 0WM       0.454800
@<TRIPOS>BOND
     1     1     2 ar  
     2     1     3 ar  
     3     1    35 1   
     4     2     4 ar  
     5     3     5 ar  
     6     4     6 ar  
     7     4    11 1   
     8     5     6 ar  
     9     5    10 ar  
    10     6     8 ar  
    11     7     8 ar  
    12     7     9 ar  
    13     7    24 1   
    14     8    36 1   
    15     9    10 ar  
    16     9    18 1   
    17    10    37 1   
    18    11    16 1   
    19    11    38 1   
    20    12    13 ar  
    21    12    14 ar  
    22    12    34 1   
    23    13    15 ar  
    24    13    33 1   
    25    14    16 ar  
    26    14    39 1   
    27    15    17 ar  
    28    15    40 1   
    29    16    17 ar  
    30    17    41 1   
    31    18    19 1   
    32    19    20 1   
    33    19    23 1   
    34    19    42 1   
    35    20    21 1   
    36    20    43 1   
    37    20    44 1   
    38    21    22 1   
    39    22    23 1   
    40    22    45 1   
    41    22    46 1   
    42    23    47 1   
    43    23    48 1   
    44    24    25 1   
    45    24    49 1   
    46    25    26 1   
    47    25    27 2   
    48    26    28 2   
    49    26    50 1   
    50    28    29 1   
    51    28    51 1   
    52    29    30 1   
    53    29    52 1   
    54    29    53 1   
    55    30    31 1   
    56    30    32 1   
    57    30    60 1   
    58    31    54 1   
    59    31    55 1   
    60    31    56 1   
    61    32    57 1   
    62    32    58 1   
    63    32    59 1   
@<TRIPOS>SUBSTRUCTURE
     1 0WM         1 TEMP              0 ****  ****    0 ROOT
