@<TRIPOS>MOLECULE
0WN
   62    65     1     0     0
SMALL
bcc


@<TRIPOS>ATOM
      1 C1           0.5810     1.0910     0.5080 ca         1 0WN       0.689900
      2 N2           1.8840     0.6650     0.4180 nb         1 0WN      -0.754000
      3 N3          -0.2580     0.9670     1.5380 nb         1 0WN      -0.712000
      4 C4           2.4040     0.0570     1.5080 ca         1 0WN       0.698200
      5 C5           0.2540     0.3560     2.6660 ca         1 0WN       0.472600
      6 C6           1.6030    -0.1130     2.7240 ca         1 0WN      -0.310600
      7 C7           1.2960    -0.8120     5.0430 ca         1 0WN      -0.014400
      8 C8           2.0990    -0.6760     3.9190 ca         1 0WN      -0.063000
      9 C9          -0.0840    -0.3860     4.9620 ca         1 0WN       0.141100
     10 C10         -0.5790     0.1910     3.8140 ca         1 0WN      -0.251300
     11 N11          3.7370    -0.3780     1.5190 nu         1 0WN      -0.718300
     12 C12          5.7050     1.0360    -1.3180 ca         1 0WN      -0.010600
     13 C13          6.3670    -0.1190    -1.7880 ca         1 0WN       0.132900
     14 C14          4.8150     0.9470    -0.2460 ca         1 0WN      -0.085000
     15 C15          6.1180    -1.3570    -1.1650 ca         1 0WN      -0.141000
     16 C16          4.5690    -0.2920     0.3750 ca         1 0WN       0.111600
     17 C17          5.2300    -1.4450    -0.1040 ca         1 0WN      -0.142000
     18 O20         -0.8250    -0.5950     6.1070 os         1 0WN      -0.351900
     19 C21         -2.2320    -0.3010     6.0450 c3         1 0WN       0.114100
     20 C22         -2.4950     1.2090     6.1490 c3         1 0WN       0.098400
     21 O23         -2.9590     1.4880     7.4700 os         1 0WN      -0.410600
     22 C24         -3.4000     0.2790     8.0990 c3         1 0WN       0.123400
     23 C25         -2.8410    -0.9050     7.3170 c3         1 0WN      -0.111400
     24 N26          1.7730    -1.3650     6.2540 ns         1 0WN      -0.413100
     25 C27          3.0360    -1.1960     6.7540 c          1 0WN       0.661100
     26 C28          3.2920    -1.6790     8.1760 c3         1 0WN      -0.173400
     27 O29          3.9710    -0.6840     6.0860 o          1 0WN      -0.689100
     28 C30          4.7640    -1.8720     8.4700 c3         1 0WN      -0.094400
     29 C31          5.4850    -0.6230     8.9630 c3         1 0WN       0.112800
     30 N32          5.8290     0.3730     7.8960 nx         1 0WN      -0.685400
     31 C33          6.2200     1.6700     8.5050 c3         1 0WN       0.086600
     32 C34          6.9020    -0.1310     6.9990 c3         1 0WN       0.086600
     33 F18          7.2370    -0.0650    -2.8210 f          1 0WN      -0.115900
     34 Cl1          5.9670     2.5510    -2.0310 cl         1 0WN      -0.050400
     35 H1           0.1900     1.5870    -0.4080 h5         1 0WN       0.069100
     36 H2           3.1560    -0.9890     3.9850 ha         1 0WN       0.159000
     37 H3          -1.6200     0.5500     3.7580 ha         1 0WN       0.173000
     38 H4           3.8860    -1.2030     2.0630 hn         1 0WN       0.425800
     39 H5           4.3020     1.8590     0.1020 ha         1 0WN       0.168000
     40 H6           6.6320    -2.2560    -1.5400 ha         1 0WN       0.161000
     41 H7           5.0470    -2.4290     0.3560 ha         1 0WN       0.138000
     42 H8          -2.6670    -0.7470     5.1140 h1         1 0WN       0.078700
     43 H9          -1.5650     1.8160     6.0050 h1         1 0WN       0.067200
     44 H10         -3.2870     1.5280     5.4230 h1         1 0WN       0.067200
     45 H11         -3.0160     0.3230     9.1500 h1         1 0WN       0.058700
     46 H12         -4.5200     0.2810     8.1030 h1         1 0WN       0.058700
     47 H13         -2.0610    -1.4480     7.9060 hc         1 0WN       0.070700
     48 H14         -3.6460    -1.6330     7.0520 hc         1 0WN       0.070700
     49 H15          1.0640    -1.7240     6.8610 hn         1 0WN       0.344500
     50 H16          2.7720    -2.6630     8.3400 hc         1 0WN       0.090200
     51 H17          2.8350    -0.9380     8.8860 hc         1 0WN       0.090200
     52 H18          5.2770    -2.3000     7.5680 hc         1 0WN       0.091700
     53 H19          4.8610    -2.6290     9.2990 hc         1 0WN       0.091700
     54 H20          4.8400    -0.0930     9.7230 hx         1 0WN       0.097200
     55 H21          6.4490    -0.9260     9.4640 hx         1 0WN       0.097200
     56 H23          7.1300     1.5270     9.1470 hx         1 0WN       0.102533
     57 H24          6.4480     2.4070     7.6890 hx         1 0WN       0.102533
     58 H25          5.3740     2.0600     9.1320 hx         1 0WN       0.102533
     59 H26          7.7860    -0.4580     7.6050 hx         1 0WN       0.102533
     60 H27          6.4950    -0.9920     6.4000 hx         1 0WN       0.102533
     61 H28          7.2070     0.6890     6.2940 hx         1 0WN       0.102533
     62 H321         4.9830     0.5180     7.3090 hn         1 0WN       0.485800
@<TRIPOS>BOND
     1     1     2 ar  
     2     1     3 ar  
     3     1    35 1   
     4     2     4 ar  
     5     3     5 ar  
     6     4     6 ar  
     7     4    11 1   
     8     5     6 ar  
     9     5    10 ar  
    10     6     8 ar  
    11     7     8 ar  
    12     7     9 ar  
    13     7    24 1   
    14     8    36 1   
    15     9    10 ar  
    16     9    18 1   
    17    10    37 1   
    18    11    16 1   
    19    11    38 1   
    20    12    13 ar  
    21    12    14 ar  
    22    12    34 1   
    23    13    15 ar  
    24    13    33 1   
    25    14    16 ar  
    26    14    39 1   
    27    15    17 ar  
    28    15    40 1   
    29    16    17 ar  
    30    17    41 1   
    31    18    19 1   
    32    19    20 1   
    33    19    23 1   
    34    19    42 1   
    35    20    21 1   
    36    20    43 1   
    37    20    44 1   
    38    21    22 1   
    39    22    23 1   
    40    22    45 1   
    41    22    46 1   
    42    23    47 1   
    43    23    48 1   
    44    24    25 1   
    45    24    49 1   
    46    25    26 1   
    47    25    27 2   
    48    26    28 1   
    49    26    50 1   
    50    26    51 1   
    51    28    29 1   
    52    28    52 1   
    53    28    53 1   
    54    29    30 1   
    55    29    54 1   
    56    29    55 1   
    57    30    31 1   
    58    30    32 1   
    59    30    62 1   
    60    31    56 1   
    61    31    57 1   
    62    31    58 1   
    63    32    59 1   
    64    32    60 1   
    65    32    61 1   
@<TRIPOS>SUBSTRUCTURE
     1 0WN         1 TEMP              0 ****  ****    0 ROOT
