@<TRIPOS>MOLECULE
molecule
   61    64     1     0     0
SMALL
bcc


@<TRIPOS>ATOM
      1 C1           0.0000     0.0000     0.0000 ca         1 0WN       0.730900
      2 N2           1.3230     0.0000     0.0000 nb         1 0WN      -0.828000
      3 N3          -0.7140     0.0000     1.1010 nb         1 0WN      -0.775000
      4 C4           2.0160     0.0000     1.1320 ca         1 0WN       0.748200
      5 C5          -0.1130    -0.0050     2.3010 ca         1 0WN       0.498600
      6 C6           1.3020     0.0000     2.3540 ca         1 0WN      -0.334600
      7 C7           1.2140     0.0020     4.7520 ca         1 0WN       0.018600
      8 C8           1.9560     0.0010     3.5910 ca         1 0WN      -0.072000
      9 C9          -0.1880    -0.0100     4.7010 ca         1 0WN       0.151100
     10 C10         -0.8480    -0.0050     3.4940 ca         1 0WN      -0.280300
     11 N11          3.3960     0.0000     1.1160 nu         1 0WN      -0.753300
     12 C12          4.2310     1.0100    -2.3200 ca         1 0WN       0.001400
     13 C13          5.4430     0.3600    -2.4960 ca         1 0WN       0.121900
     14 C14          3.5510     0.8920    -1.1220 ca         1 0WN      -0.096000
     15 C15          5.9740    -0.4070    -1.4740 ca         1 0WN      -0.142000
     16 C16          4.0830     0.1220    -0.0960 ca         1 0WN       0.146600
     17 C17          5.2970    -0.5290    -0.2760 ca         1 0WN      -0.137000
     18 Cl1          3.5710     1.9790    -3.6000 cl         1 0WN      -0.084400
     19 O20         -0.9030    -0.0270     5.8580 os         1 0WN      -0.330900
     20 C21         -2.3220    -0.1380     5.7410 c3         1 0WN       0.104100
     21 C22         -2.9690     1.2620     5.6510 c3         1 0WN       0.098400
     22 O23         -4.1980     1.1500     6.4010 os         1 0WN      -0.401600
     23 C24         -3.8640     0.3560     7.5610 c3         1 0WN       0.122400
     24 C25         -2.9240    -0.7470     7.0270 c3         1 0WN      -0.114400
     25 N26          1.8650    -0.0040     5.9930 ns         1 0WN      -0.466100
     26 C27          3.0690    -0.5950     6.1200 c          1 0WN       0.663100
     27 C28          3.7250    -0.6870     7.4730 c3         1 0WN      -0.157400
     28 O29          3.6250    -1.0520     5.1440 o          1 0WN      -0.610100
     29 C30          5.0730    -1.3980     7.3400 c3         1 0WN      -0.067400
     30 C31          5.7380    -1.4910     8.7140 c3         1 0WN       0.159800
     31 N32          7.0330    -2.1730     8.5860 n3         1 0WN      -0.730600
     32 C33          7.8060    -2.0740     9.8310 c3         1 0WN       0.150100
     33 C34          6.8520    -3.5760     8.1890 c3         1 0WN       0.150100
     34 H1          -0.5170    -0.0000    -0.9520 h5         1 0WN       0.060100
     35 H2           3.0380     0.0110     3.6360 ha         1 0WN       0.173000
     36 H3          -1.9310    -0.0140     3.4650 ha         1 0WN       0.163000
     37 H4           3.9060    -0.0720     1.9750 hn         1 0WN       0.471800
     38 H5           2.6040     1.4000    -0.9840 ha         1 0WN       0.178000
     39 H6           6.9210    -0.9140    -1.6140 ha         1 0WN       0.153000
     40 H7           5.7140    -1.1290     0.5230 ha         1 0WN       0.144000
     41 H8          -2.5920    -0.7350     4.8790 h1         1 0WN       0.073700
     42 H9          -2.3210     2.0060     6.1000 h1         1 0WN       0.064700
     43 H10         -3.1810     1.5120     4.6180 h1         1 0WN       0.064700
     44 H11         -3.3500     0.9630     8.2960 h1         1 0WN       0.055200
     45 H12         -4.7580    -0.0850     7.9850 h1         1 0WN       0.055200
     46 H13         -2.1430    -0.9590     7.7470 hc         1 0WN       0.067700
     47 H14         -3.4870    -1.6430     6.7930 hc         1 0WN       0.067700
     48 H15          1.4480     0.4560     6.7780 hn         1 0WN       0.335500
     49 H16          3.8800     0.3100     7.8680 hc         1 0WN       0.062700
     50 H17          3.0870    -1.2460     8.1460 hc         1 0WN       0.062700
     51 H18          5.7110    -0.8380     6.6670 hc         1 0WN       0.066200
     52 H19          4.9180    -2.3950     6.9450 hc         1 0WN       0.066200
     53 H20          5.8930    -0.4940     9.1080 h1         1 0WN       0.030700
     54 H21          5.1000    -2.0500     9.3870 h1         1 0WN       0.030700
     55 H23          7.2470    -2.5280    10.6400 h1         1 0WN       0.033033
     56 H24          7.9900    -1.0310    10.0590 h1         1 0WN       0.033033
     57 H25          8.7510    -2.5900     9.7110 h1         1 0WN       0.033033
     58 H26          7.6460    -4.1770     8.6140 h1         1 0WN       0.033033
     59 H27          6.8800    -3.6510     7.1080 h1         1 0WN       0.033033
     60 H28          5.8950    -3.9330     8.5510 h1         1 0WN       0.033033
     61 F18          6.1070     0.4780    -3.6670 f          1 0WN      -0.129900
@<TRIPOS>BOND
     1    61    13 1
     2    13    15 ar
     3    13    12 ar
     4    18    12 1
     5    15    17 ar
     6    12    14 ar
     7    17    16 ar
     8    14    16 ar
     9    16    11 1
    10    11     4 1
    11     2     4 ar
    12     2     1 ar
    13     4     6 ar
    14     1     3 ar
    15     6     8 ar
    16     6     5 ar
    17    32    31 1
    18     8     7 ar
    19     3     5 ar
    20     5    10 ar
    21    28    26 2
    22    31    33 1
    23    31    30 1
    24     7    25 1
    25     7     9 ar
    26    10     9 ar
    27    26    25 1
    28    26    27 1
    29     9    19 1
    30    30    29 1
    31    29    27 1
    32    19    20 1
    33    21    20 1
    34    21    22 1
    35    20    24 1
    36    22    23 1
    37    24    23 1
    38     1    34 1
    39     8    35 1
    40    10    36 1
    41    11    37 1
    42    14    38 1
    43    15    39 1
    44    17    40 1
    45    20    41 1
    46    21    42 1
    47    21    43 1
    48    23    44 1
    49    23    45 1
    50    24    46 1
    51    24    47 1
    52    25    48 1
    53    27    49 1
    54    27    50 1
    55    29    51 1
    56    29    52 1
    57    30    53 1
    58    30    54 1
    59    32    55 1
    60    32    56 1
    61    32    57 1
    62    33    58 1
    63    33    59 1
    64    33    60 1
@<TRIPOS>SUBSTRUCTURE
     1 0WN         1 TEMP              0 ****  ****    0 ROOT
