@<TRIPOS>MOLECULE
0WN
   61    64     1     0     0
SMALL
bcc


@<TRIPOS>ATOM
      1 C1           0.0000     0.0000     0.0000 ca         1 0WN       0.690900
      2 N2           1.3230     0.0000     0.0000 nb         1 0WN      -0.732000
      3 N3          -0.7140     0.0000     1.1010 nb         1 0WN      -0.686000
      4 C4           2.0160     0.0000     1.1320 ca         1 0WN       0.552200
      5 C5          -0.1130    -0.0050     2.3010 ca         1 0WN       0.471600
      6 C6           1.3020     0.0000     2.3540 ca         1 0WN      -0.332600
      7 C7           1.2140     0.0020     4.7520 ca         1 0WN      -0.135400
      8 C8           1.9560     0.0010     3.5910 ca         1 0WN      -0.051000
      9 C9          -0.1880    -0.0100     4.7010 ca         1 0WN       0.162100
     10 C10         -0.8480    -0.0050     3.4940 ca         1 0WN      -0.275300
     11 N11          3.3960     0.0000     1.1160 nu         1 0WN      -0.279300
     12 C12          4.2310     1.0100    -2.3200 ca         1 0WN      -0.055600
     13 C13          5.4430     0.3600    -2.4960 ca         1 0WN       0.094900
     14 C14          3.5510     0.8920    -1.1220 ca         1 0WN      -0.080000
     15 C15          5.9740    -0.4070    -1.4740 ca         1 0WN      -0.105000
     16 C16          4.0830     0.1220    -0.0960 ca         1 0WN      -0.009400
     17 C17          5.2970    -0.5290    -0.2760 ca         1 0WN      -0.107000
     18 Cl1          3.5710     1.9790    -3.6000 cl         1 0WN       0.005600
     19 O20         -0.9030    -0.0270     5.8580 os         1 0WN      -0.307900
     20 C21         -2.3220    -0.1380     5.7410 c3         1 0WN       0.130100
     21 C22         -2.9690     1.2620     5.6510 c3         1 0WN       0.175400
     22 O23         -4.1980     1.1500     6.4010 os         1 0WN      -0.393600
     23 C24         -3.8640     0.3560     7.5610 c3         1 0WN       0.207400
     24 C25         -2.9240    -0.7470     7.0270 c3         1 0WN      -0.064400
     25 N26          1.8650    -0.0040     5.9930 ns         1 0WN      -0.016100
     26 C27          3.0690    -0.5950     6.1200 c          1 0WN       0.563100
     27 C28          3.7250    -0.6870     7.4730 c3         1 0WN      -0.096400
     28 O29          3.6250    -1.0520     5.1440 o          1 0WN      -0.650100
     29 C30          5.0730    -1.3980     7.3400 c3         1 0WN      -0.022400
     30 C31          5.7380    -1.4910     8.7140 c3         1 0WN       0.150800
     31 N32          7.0330    -2.1730     8.5860 n3         1 0WN      -0.544600
     32 C33          7.8060    -2.0740     9.8310 c3         1 0WN       0.181600
     33 C34          6.8520    -3.5760     8.1890 c3         1 0WN       0.181600
     34 H1          -0.5170    -0.0000    -0.9520 h5         1 0WN      -0.004900
     35 H2           3.0380     0.0110     3.6360 ha         1 0WN       0.156000
     36 H3          -1.9310    -0.0140     3.4650 ha         1 0WN       0.146000
     37 H4           3.9060    -0.0720     1.9750 hn         1 0WN       0.303800
     38 H5           2.6040     1.4000    -0.9840 ha         1 0WN       0.151000
     39 H6           6.9210    -0.9140    -1.6140 ha         1 0WN       0.122000
     40 H7           5.7140    -1.1290     0.5230 ha         1 0WN       0.115000
     41 H8          -2.5920    -0.7350     4.8790 h1         1 0WN       0.044700
     42 H9          -2.3210     2.0060     6.1000 h1         1 0WN       0.022700
     43 H10         -3.1810     1.5120     4.6180 h1         1 0WN       0.022700
     44 H11         -3.3500     0.9630     8.2960 h1         1 0WN       0.012200
     45 H12         -4.7580    -0.0850     7.9850 h1         1 0WN       0.012200
     46 H13         -2.1430    -0.9590     7.7470 hc         1 0WN       0.033200
     47 H14         -3.4870    -1.6430     6.7930 hc         1 0WN       0.033200
     48 H15          1.4480     0.4560     6.7780 hn         1 0WN       0.175500
     49 H16          3.8800     0.3100     7.8680 hc         1 0WN       0.029200
     50 H17          3.0870    -1.2460     8.1460 hc         1 0WN       0.029200
     51 H18          5.7110    -0.8380     6.6670 hc         1 0WN       0.037200
     52 H19          4.9180    -2.3950     6.9450 hc         1 0WN       0.037200
     53 H20          5.8930    -0.4940     9.1080 h1         1 0WN       0.005700
     54 H21          5.1000    -2.0500     9.3870 h1         1 0WN       0.005700
     55 H23          7.2470    -2.5280    10.6400 h1         1 0WN       0.001700
     56 H24          7.9900    -1.0310    10.0590 h1         1 0WN       0.001700
     57 H25          8.7510    -2.5900     9.7110 h1         1 0WN       0.001700
     58 H26          7.6460    -4.1770     8.6140 h1         1 0WN       0.001700
     59 H27          6.8800    -3.6510     7.1080 h1         1 0WN       0.001700
     60 H28          5.8950    -3.9330     8.5510 h1         1 0WN       0.001700
     61 F18          6.1070     0.4780    -3.6670 f          1 0WN      -0.122900
@<TRIPOS>BOND
     1     1     2 ar  
     2     1     3 ar  
     3     1    34 1   
     4     2     4 ar  
     5     3     5 ar  
     6     4     6 ar  
     7     4    11 1   
     8     5     6 ar  
     9     5    10 ar  
    10     6     8 ar  
    11     7     8 ar  
    12     7     9 ar  
    13     7    25 1   
    14     8    35 1   
    15     9    10 ar  
    16     9    19 1   
    17    10    36 1   
    18    11    16 1   
    19    11    37 1   
    20    12    13 ar  
    21    12    14 ar  
    22    12    18 1   
    23    13    15 ar  
    24    13    61 1   
    25    14    16 ar  
    26    14    38 1   
    27    15    17 ar  
    28    15    39 1   
    29    16    17 ar  
    30    17    40 1   
    31    19    20 1   
    32    20    21 1   
    33    20    24 1   
    34    20    41 1   
    35    21    22 1   
    36    21    42 1   
    37    21    43 1   
    38    22    23 1   
    39    23    24 1   
    40    23    44 1   
    41    23    45 1   
    42    24    46 1   
    43    24    47 1   
    44    25    26 1   
    45    25    48 1   
    46    26    27 1   
    47    26    28 2   
    48    27    29 1   
    49    27    49 1   
    50    27    50 1   
    51    29    30 1   
    52    29    51 1   
    53    29    52 1   
    54    30    31 1   
    55    30    53 1   
    56    30    54 1   
    57    31    32 1   
    58    31    33 1   
    59    32    55 1   
    60    32    56 1   
    61    32    57 1   
    62    33    58 1   
    63    33    59 1   
    64    33    60 1   
@<TRIPOS>SUBSTRUCTURE
     1 0WN         1 TEMP              0 ****  ****    0 ROOT
