@<TRIPOS>MOLECULE
molecule
   56    59     1     0     0
SMALL
bcc


@<TRIPOS>ATOM
      1 C1           0.0000     0.0000     0.0000 c          1 0WP       0.678700
      2 C2           1.4760     0.0000     0.0000 ca         1 0WP      -0.201600
      3 O3          -0.6080    -1.0530     0.0100 o          1 0WP      -0.556100
      4 C4           2.1780     0.0000     1.2090 ca         1 0WP       0.141900
      5 C5           3.5670    -0.0010     1.1990 ca         1 0WP       0.010600
      6 C6           4.2530    -0.0000    -0.0080 ca         1 0WP      -0.084000
      7 C7           3.5610    -0.0010    -1.2050 ca         1 0WP      -0.164000
      8 C8           2.1790    -0.0060    -1.2100 ca         1 0WP       0.170900
      9 F9           1.5070    -0.0120    -2.3820 f          1 0WP      -0.120900
     10 F10          1.5090    -0.0000     2.3820 f          1 0WP      -0.130900
     11 N11          4.2760     0.0000     2.4070 ns         1 0WP      -0.462100
     12 N12         -0.6740     1.1670    -0.0060 ns         1 0WP      -0.460100
     13 C13          5.5560     0.4180     2.4370 c          1 0WP       0.674700
     14 C14          6.3430     0.3010     3.6830 ca         1 0WP      -0.083600
     15 O15          6.0650     0.8910     1.4390 o          1 0WP      -0.578100
     16 C16          5.7620    -0.2410     4.8310 ca         1 0WP      -0.148000
     17 C17          6.5010    -0.3480     5.9900 ca         1 0WP      -0.131000
     18 C18          7.8170     0.0820     6.0170 ca         1 0WP      -0.124000
     19 C19          8.3990     0.6210     4.8830 ca         1 0WP      -0.105300
     20 C20          7.6720     0.7270     3.7160 ca         1 0WP      -0.104000
     21 C21          9.8310     1.0870     4.9230 c3         1 0WP       0.052400
     22 C22          9.8910     2.5790     4.5900 c3         1 0WP      -0.083600
     23 C23         10.4050     0.8530     6.3210 c3         1 0WP      -0.083600
     24 C24         -2.0720     1.1690    -0.1040 ca         1 0WP      -0.115700
     25 C25         -2.7970     0.1890     0.5190 ca         1 0WP       0.025000
     26 C26         -4.2000     0.2250     0.3980 ca         1 0WP      -0.342300
     27 C27         -4.8110     1.3080    -0.3900 ca         1 0WP       0.357300
     28 N28         -4.0160     2.2250    -0.9650 nb         1 0WP      -0.677000
     29 C29         -2.7150     2.1740    -0.8340 ca         1 0WP       0.456200
     30 C30         -5.2470    -0.5610     0.8670 cc         1 0WP       0.161000
     31 N31         -6.3910    -0.0230     0.4170 na         1 0WP      -0.025200
     32 N32         -6.1170     1.1150    -0.3470 nc         1 0WP      -0.262400
     33 C33         10.6190     0.3320     3.9360 c1         1 0WP       0.212700
     34 N34         11.2410    -0.2560     3.1880 n1         1 0WP      -0.358800
     35 O35         -5.1330    -1.6700     1.6370 os         1 0WP      -0.285900
     36 C36         -6.3440    -2.3310     2.0080 c3         1 0WP       0.115700
     37 H1           5.3360    -0.0010    -0.0150 ha         1 0WP       0.195000
     38 H2           4.1020    -0.0000    -2.1430 ha         1 0WP       0.160000
     39 H3           3.8440    -0.3460     3.2410 hn         1 0WP       0.340500
     40 H4          -0.1790     2.0280     0.1170 hn         1 0WP       0.326500
     41 H5           5.3120    -1.2260     4.7960 ha         1 0WP       0.156000
     42 H6           6.0530    -0.7680     6.8820 ha         1 0WP       0.142000
     43 H7           8.3950    -0.0020     6.9290 ha         1 0WP       0.142000
     44 H8           8.4530     0.0950     3.3130 ha         1 0WP       0.190000
     45 H9           9.1910     3.1180     5.2160 hc         1 0WP       0.051867
     46 H10         10.8940     2.9490     4.7680 hc         1 0WP       0.051867
     47 H11          9.6320     2.7270     3.5480 hc         1 0WP       0.051867
     48 H12          9.7050     1.2150     7.0650 hc         1 0WP       0.051867
     49 H13         10.5740    -0.2060     6.4700 hc         1 0WP       0.051867
     50 H14         11.3440     1.3860     6.4200 hc         1 0WP       0.051867
     51 H15         -2.6690     0.0130     1.5810 ha         1 0WP       0.155000
     52 H16         -2.4450     3.2110    -0.6770 h4         1 0WP       0.033100
     53 H17         -7.3110    -0.3870     0.5700 hn         1 0WP       0.331700
     54 H18         -6.1090    -3.2840     2.4670 h1         1 0WP       0.048367
     55 H19         -6.9510    -2.4940     1.1260 h1         1 0WP       0.048367
     56 H20         -6.8900    -1.7150     2.7130 h1         1 0WP       0.048367
@<TRIPOS>BOND
     1    34    33 3   
     2    33    21 1   
     3    22    21 1   
     4    21    23 1   
     5    21    19 1   
     6    18    19 ar  
     7    18    17 ar  
     8    19    20 ar  
     9    17    16 ar  
    10    20    14 ar  
    11    16    14 ar  
    12    14    13 1   
    13    15    13 2   
    14    13    11 1   
    15    11     5 1   
    16    10     4 1   
    17     5     4 ar  
    18     5     6 ar  
    19     4     2 ar  
    20     6     7 ar  
    21     2     1 1   
    22     2     8 ar  
    23     3     1 2   
    24     1    12 1   
    25    12    24 1   
    26     7     8 ar  
    27    24    29 ar  
    28    24    25 ar  
    29    29    28 ar  
    30     8     9 1   
    31    25    26 ar  
    32    28    27 ar  
    33    26    27 ar  
    34    26    30 2   
    35    27    32 2   
    36    30    35 1   
    37    30    31 1   
    38    35    36 1   
    39    32    31 1   
    40     6    37 1   
    41     7    38 1   
    42    11    39 1   
    43    12    40 1   
    44    16    41 1   
    45    17    42 1   
    46    18    43 1   
    47    20    44 1   
    48    22    45 1   
    49    22    46 1   
    50    22    47 1   
    51    23    48 1   
    52    23    49 1   
    53    23    50 1   
    54    25    51 1   
    55    29    52 1   
    56    31    53 1   
    57    36    54 1   
    58    36    55 1   
    59    36    56 1   
@<TRIPOS>SUBSTRUCTURE
     1 0WP         1 TEMP              0 ****  ****    0 ROOT
