@<TRIPOS>MOLECULE
0WP
   56    59     1     0     0
SMALL
bcc


@<TRIPOS>ATOM
      1 C1          -0.2060    -0.2980    -0.3410 c          1 0WP       0.688700
      2 C2           1.2830    -0.4330    -0.2530 ca         1 0WP      -0.211600
      3 O3          -0.7860     0.7040     0.1120 o          1 0WP      -0.570100
      4 C4           1.9110    -0.2570     0.9980 ca         1 0WP       0.210900
      5 C5           3.3330    -0.3350     1.1080 ca         1 0WP       0.003600
      6 C6           4.0840    -0.5590    -0.0630 ca         1 0WP      -0.098000
      7 C7           3.4700    -0.7190    -1.2960 ca         1 0WP      -0.170000
      8 C8           2.0690    -0.6720    -1.3960 ca         1 0WP       0.160900
      9 F9           1.4870    -0.8530    -2.6050 f          1 0WP      -0.129900
     10 F10          1.1560    -0.0210     2.0890 f          1 0WP      -0.092900
     11 N11          3.9870    -0.1540     2.3390 ns         1 0WP      -0.482100
     12 N12         -0.8670    -1.3620    -0.9320 ns         1 0WP      -0.448100
     13 C13          3.6840    -0.8790     3.4920 c          1 0WP       0.678700
     14 C14          4.5180    -0.5890     4.6930 ca         1 0WP      -0.146600
     15 O15          2.7720    -1.7230     3.5060 o          1 0WP      -0.565100
     16 C16          4.9320     0.7060     5.0120 ca         1 0WP      -0.096000
     17 C17          5.6940     0.9180     6.1610 ca         1 0WP      -0.134000
     18 C18          6.0400    -0.1520     6.9820 ca         1 0WP      -0.095000
     19 C19          5.6200    -1.4540     6.6720 ca         1 0WP      -0.088300
     20 C20          4.8530    -1.6660     5.5250 ca         1 0WP      -0.069000
     21 C21          5.9830    -2.5830     7.6060 c3         1 0WP       0.066400
     22 C22          5.1360    -2.4710     8.8770 c3         1 0WP      -0.091100
     23 C23          5.7600    -3.9580     6.9800 c3         1 0WP      -0.091100
     24 C24         -2.2500    -1.4430    -1.1590 ca         1 0WP      -0.086700
     25 C25         -3.1890    -0.6630    -0.5040 ca         1 0WP      -0.063000
     26 C26         -4.5450    -0.8690    -0.8260 ca         1 0WP      -0.232300
     27 C27         -4.9210    -1.8910    -1.8200 ca         1 0WP       0.269300
     28 N28         -3.9660    -2.6670    -2.4620 nb         1 0WP      -0.601000
     29 C29         -2.7170    -2.4340    -2.1320 ca         1 0WP       0.406200
     30 C30         -5.7810    -0.3180    -0.4200 cc         1 0WP       0.068000
     31 N31         -6.7710    -0.9700    -1.1640 na         1 0WP       0.041800
     32 N32         -6.3010    -1.9190    -1.9640 nc         1 0WP      -0.239400
     33 C33          7.3980    -2.4700     7.9660 c1         1 0WP       0.213700
     34 N34          8.5210    -2.3940     8.2540 n1         1 0WP      -0.369800
     35 O35         -6.1220     0.6140     0.5200 os         1 0WP      -0.304900
     36 C36         -5.5470     1.9070     0.2770 c3         1 0WP       0.112700
     37 H1           5.1840    -0.6100    -0.0080 ha         1 0WP       0.149000
     38 H2           4.0710    -0.8920    -2.2020 ha         1 0WP       0.161000
     39 H3           4.8350     0.3660     2.3150 hn         1 0WP       0.325500
     40 H4          -0.3130    -2.0770    -1.3490 hn         1 0WP       0.325500
     41 H5           4.6470     1.5620     4.3820 ha         1 0WP       0.142000
     42 H6           6.0210     1.9370     6.4200 ha         1 0WP       0.143000
     43 H7           6.6460     0.0250     7.8860 ha         1 0WP       0.146000
     44 H8           4.4850    -2.6700     5.2570 ha         1 0WP       0.160000
     45 H9           4.0550    -2.5560     8.6130 hc         1 0WP       0.052033
     46 H10          5.3100    -1.4880     9.3750 hc         1 0WP       0.052033
     47 H11          5.4010    -3.2910     9.5860 hc         1 0WP       0.052033
     48 H12          4.6680    -4.1380     6.8330 hc         1 0WP       0.052033
     49 H13          6.2810    -4.0330     5.9960 hc         1 0WP       0.052033
     50 H14          6.1590    -4.7510     7.6580 hc         1 0WP       0.052033
     51 H15         -2.9100     0.0970     0.2430 ha         1 0WP       0.175000
     52 H16         -1.9720    -3.0640    -2.6570 h4         1 0WP       0.021100
     53 H17         -7.7540    -0.8750    -1.0300 hn         1 0WP       0.330700
     54 H18         -5.9770     2.3470    -0.6550 h1         1 0WP       0.054033
     55 H19         -4.4360     1.8320     0.2030 h1         1 0WP       0.054033
     56 H20         -5.8530     2.4940     1.1790 h1         1 0WP       0.054033
@<TRIPOS>BOND
     1     1     2 1   
     2     1     3 2   
     3     1    12 1   
     4     2     4 ar  
     5     2     8 ar  
     6     4     5 ar  
     7     4    10 1   
     8     5     6 ar  
     9     5    11 1   
    10     6     7 ar  
    11     6    37 1   
    12     7     8 ar  
    13     7    38 1   
    14     8     9 1   
    15    11    13 1   
    16    11    39 1   
    17    12    24 1   
    18    12    40 1   
    19    13    14 1   
    20    13    15 2   
    21    14    16 ar  
    22    14    20 ar  
    23    16    17 ar  
    24    16    41 1   
    25    17    18 ar  
    26    17    42 1   
    27    18    19 ar  
    28    18    43 1   
    29    19    20 ar  
    30    19    21 1   
    31    20    44 1   
    32    21    22 1   
    33    21    23 1   
    34    21    33 1   
    35    22    45 1   
    36    22    46 1   
    37    22    47 1   
    38    23    48 1   
    39    23    49 1   
    40    23    50 1   
    41    24    25 ar  
    42    24    29 ar  
    43    25    26 ar  
    44    25    51 1   
    45    26    27 ar  
    46    26    30 2   
    47    27    28 ar  
    48    27    32 2   
    49    28    29 ar  
    50    29    52 1   
    51    30    31 1   
    52    30    35 1   
    53    31    32 1   
    54    31    53 1   
    55    33    34 3   
    56    35    36 1   
    57    36    54 1   
    58    36    55 1   
    59    36    56 1   
@<TRIPOS>SUBSTRUCTURE
     1 0WP         1 TEMP              0 ****  ****    0 ROOT
