@<TRIPOS>MOLECULE
0WR
   78    83     1     0     0
SMALL
bcc


@<TRIPOS>ATOM
      1 C1           4.8060     0.4700    -0.0250 c3         1 0WR      -0.126100
      2 N1           1.8840    -3.8430    -0.7910 n3         1 0WR      -0.737600
      3 O1           0.5890    -8.2150     6.7400 os         1 0WR      -0.415600
      4 C2           4.3020    -0.2430    -1.2770 c3         1 0WR       0.152800
      5 N2           0.6930    -6.3630     1.4680 nc         1 0WR      -0.539100
      6 O2           5.3420    -1.0620    -1.8160 oh         1 0WR      -0.597800
      7 C3           3.8780     0.7950    -2.3130 c3         1 0WR      -0.126100
      8 N3           2.3000    -6.8160    -0.1320 na         1 0WR      -0.234000
      9 C4           3.1310    -1.1860    -0.9360 c3         1 0WR      -0.045700
     10 N4           3.2620    -8.8830     0.8970 nb         1 0WR      -0.681000
     11 C5           2.6270    -1.9080    -2.1750 c3         1 0WR      -0.074900
     12 N5           2.1080    -9.5000     2.9990 nb         1 0WR      -0.778000
     13 C6           1.5140    -2.8960    -1.8370 c3         1 0WR       0.167800
     14 N6           0.2090    -8.2690     3.8660 nh         1 0WR      -0.703300
     15 C7           2.3960    -3.1850     0.4040 c3         1 0WR       0.167800
     16 C8           3.5330    -2.2090     0.1150 c3         1 0WR      -0.074900
     17 C10          1.2550    -5.9610     0.3070 cd         1 0WR       0.406800
     18 C11          1.3850    -7.5200     1.8380 ca         1 0WR      -0.173200
     19 C12          2.4130    -7.8180     0.8420 ca         1 0WR       0.433800
     20 C14          3.0420    -9.6860     1.9870 ca         1 0WR       0.776500
     21 C15          1.2650    -8.4380     2.9310 ca         1 0WR       0.714200
     22 C16          0.2330    -7.0230     4.6260 c3         1 0WR       0.143800
     23 C17          1.0070    -7.1090     5.9490 c3         1 0WR       0.093900
     24 C18          0.6680    -9.4530     6.0380 c3         1 0WR       0.093900
     25 C19         -0.1240    -9.3980     4.7280 c3         1 0WR       0.143800
     26 N7           3.8710   -10.8330     2.1220 na         1 0WR      -0.204100
     27 C20          4.5740   -11.2170     3.2790 ca         1 0WR      -0.045200
     28 C21          4.5860   -10.7370     4.5910 ca         1 0WR      -0.115000
     29 C22          5.4270   -11.3720     5.4980 ca         1 0WR      -0.125000
     30 C23          6.2350   -12.4570     5.1250 ca         1 0WR      -0.147000
     31 C24          6.2360   -12.9520     3.8280 ca         1 0WR      -0.081000
     32 C25          5.4040   -12.3400     2.8830 ca         1 0WR       0.079400
     33 N8           5.1950   -12.6370     1.5230 nc         1 0WR      -0.593100
     34 C26          4.2940   -11.7270     1.0740 cd         1 0WR       0.616700
     35 N9           3.7850   -11.5960    -0.2540 nh         1 0WR      -0.664600
     36 C27          2.4150   -12.0500    -0.3900 c3         1 0WR       0.166600
     37 C28          4.6740   -12.1140    -1.2740 c3         1 0WR       0.166600
     38 H1           5.5240     1.2790    -0.3030 hc         1 0WR       0.044200
     39 H2           3.9520     0.9240     0.5290 hc         1 0WR       0.044200
     40 H3           5.3350    -0.2520     0.6420 hc         1 0WR       0.044200
     41 H5           6.0790    -0.4730    -2.0180 ho         1 0WR       0.399000
     42 H6           3.7230     0.3070    -3.3050 hc         1 0WR       0.044200
     43 H7           4.6700     1.5740    -2.4270 hc         1 0WR       0.044200
     44 H8           2.9310     1.2900    -1.9960 hc         1 0WR       0.044200
     45 H9           2.3030    -0.5440    -0.5240 hc         1 0WR       0.046700
     46 H10          3.4860    -2.4420    -2.6610 hc         1 0WR       0.058700
     47 H11          2.2150    -1.1710    -2.9120 hc         1 0WR       0.058700
     48 H12          0.5880    -2.3120    -1.5520 h1         1 0WR       0.033200
     49 H13          1.2700    -3.4910    -2.7630 h1         1 0WR       0.033200
     50 H14          1.5750    -2.6290     0.9490 h1         1 0WR       0.033200
     51 H15          2.7760    -3.9910     1.0940 h1         1 0WR       0.033200
     52 H16          4.4410    -2.7620    -0.2420 hc         1 0WR       0.058700
     53 H17          3.7940    -1.6950     1.0750 hc         1 0WR       0.058700
     54 H20          3.6320    -7.6160    -1.5320 h1         1 0WR       0.065033
     55 H21          3.9510    -5.8810    -1.0320 h1         1 0WR       0.065033
     56 H22          2.5420    -6.2640    -2.1290 h1         1 0WR       0.065033
     57 H23          0.6650    -6.1880     4.0130 h1         1 0WR       0.076700
     58 H24         -0.8450    -6.7790     4.8480 h1         1 0WR       0.076700
     59 H25          2.1110    -7.1810     5.7610 h1         1 0WR       0.058200
     60 H26          0.7830    -6.2130     6.5850 h1         1 0WR       0.058200
     61 H27          0.2120   -10.1990     6.7400 h1         1 0WR       0.058200
     62 H28          1.7440    -9.7100     5.8480 h1         1 0WR       0.058200
     63 H29         -0.0010   -10.3690     4.1770 h1         1 0WR       0.076700
     64 H30         -1.2180    -9.2700     4.9730 h1         1 0WR       0.076700
     65 H31          3.9550    -9.8940     4.9020 ha         1 0WR       0.147000
     66 H32          5.4590   -11.0140     6.5390 ha         1 0WR       0.131000
     67 H33          6.8820   -12.9250     5.8820 ha         1 0WR       0.131000
     68 H34          6.8690   -13.8040     3.5420 ha         1 0WR       0.147000
     69 H35          2.3130   -13.1670    -0.3080 h1         1 0WR       0.045200
     70 H36          1.7780   -11.5710     0.3980 h1         1 0WR       0.045200
     71 H37          2.0480   -11.7270    -1.3990 h1         1 0WR       0.045200
     72 H38          4.7390   -13.2350    -1.2770 h1         1 0WR       0.045200
     73 H39          5.7010   -11.6910    -1.1190 h1         1 0WR       0.045200
     74 H40          4.2810   -11.7690    -2.2660 h1         1 0WR       0.045200
     75 C9           0.7990    -4.7680    -0.4970 c3         1 0WR       0.156500
     76 C13          3.1520    -6.6370    -1.2630 c3         1 0WR       0.033600
     77 H18          0.3880    -5.1570    -1.4750 h1         1 0WR       0.063700
     78 H19         -0.0490    -4.2710     0.0620 h1         1 0WR       0.063700
@<TRIPOS>BOND
     1     1     4 1   
     2     1    38 1   
     3     1    39 1   
     4     1    40 1   
     5     2    13 1   
     6     2    15 1   
     7     2    75 1   
     8     3    23 1   
     9     3    24 1   
    10     4     6 1   
    11     4     7 1   
    12     4     9 1   
    13     5    17 2   
    14     5    18 1   
    15     6    41 1   
    16     7    42 1   
    17     7    43 1   
    18     7    44 1   
    19     8    17 1   
    20     8    19 1   
    21     8    76 1   
    22     9    11 1   
    23     9    16 1   
    24     9    45 1   
    25    10    19 ar  
    26    10    20 ar  
    27    11    13 1   
    28    11    46 1   
    29    11    47 1   
    30    12    20 ar  
    31    12    21 ar  
    32    13    48 1   
    33    13    49 1   
    34    14    21 1   
    35    14    22 1   
    36    14    25 1   
    37    15    16 1   
    38    15    50 1   
    39    15    51 1   
    40    16    52 1   
    41    16    53 1   
    42    17    75 1   
    43    18    19 ar  
    44    18    21 ar  
    45    20    26 1   
    46    22    23 1   
    47    22    57 1   
    48    22    58 1   
    49    23    59 1   
    50    23    60 1   
    51    24    25 1   
    52    24    61 1   
    53    24    62 1   
    54    25    63 1   
    55    25    64 1   
    56    26    27 1   
    57    26    34 1   
    58    27    28 ar  
    59    27    32 ar  
    60    28    29 ar  
    61    28    65 1   
    62    29    30 ar  
    63    29    66 1   
    64    30    31 ar  
    65    30    67 1   
    66    31    32 ar  
    67    31    68 1   
    68    32    33 1   
    69    33    34 2   
    70    34    35 1   
    71    35    36 1   
    72    35    37 1   
    73    36    69 1   
    74    36    70 1   
    75    36    71 1   
    76    37    72 1   
    77    37    73 1   
    78    37    74 1   
    79    54    76 1   
    80    55    76 1   
    81    56    76 1   
    82    75    77 1   
    83    75    78 1   
@<TRIPOS>SUBSTRUCTURE
     1 0WR         1 TEMP              0 ****  ****    0 ROOT
