@<TRIPOS>MOLECULE
0WR
   78    83     1     0     0
SMALL
bcc


@<TRIPOS>ATOM
      1 C1           0.0000     0.0000     0.0000 c3         1 0WR      -0.042100
      2 N1           3.4590     2.4260    -2.9430 n3         1 0WR      -0.527600
      3 O1           7.2050     0.7740   -10.1620 os         1 0WR      -0.411600
      4 C2           1.5300     0.0000     0.0000 c3         1 0WR       0.171800
      5 N2           4.1960     2.6600    -6.1030 nc         1 0WR      -0.458100
      6 O2           2.0060     0.0000     1.3480 oh         1 0WR      -0.589800
      7 C3           2.0410    -1.2480    -0.7210 c3         1 0WR      -0.042100
      8 N3           2.4310     3.8850    -5.7190 na         1 0WR       0.231000
      9 C4           2.0400     1.2500    -0.7200 c3         1 0WR      -0.045700
     10 N4           1.5170     3.7260    -8.0350 nb         1 0WR      -0.614000
     11 C5           3.5660     1.1900    -0.8310 c3         1 0WR      -0.033900
     12 N5           2.8030     2.4630    -9.4950 nb         1 0WR      -0.710000
     13 C6           4.0640     2.4120    -1.6050 c3         1 0WR       0.146800
     14 N6           4.8100     1.4150    -8.8430 nh         1 0WR      -0.431300
     15 C7           1.9970     2.5300    -2.8630 c3         1 0WR       0.146800
     16 C8           1.4360     1.3110    -2.1260 c3         1 0WR      -0.033900
     17 C10          3.5650     3.3430    -5.1920 cd         1 0WR       0.204800
     18 C11          3.5100     2.7230    -7.2690 ca         1 0WR      -0.209200
     19 C12          2.3680     3.5080    -7.0360 ca         1 0WR       0.253800
     20 C14          1.7380     3.2090    -9.2310 ca         1 0WR       0.566500
     21 C15          3.7040     2.1950    -8.5580 ca         1 0WR       0.606200
     22 C16          6.0550     2.1310    -8.5280 c3         1 0WR       0.087800
     23 C17          7.2490     1.2120    -8.8010 c3         1 0WR       0.212400
     24 C18          6.0060     0.0720   -10.5030 c3         1 0WR       0.212400
     25 C19          4.8000     0.9800   -10.2470 c3         1 0WR       0.087800
     26 N7           0.8230     3.4590   -10.2500 na         1 0WR       0.350900
     27 C20          0.9500     3.0890   -11.5820 ca         1 0WR      -0.255200
     28 C21          1.9210     2.4130   -12.3020 ca         1 0WR      -0.077000
     29 C22          1.7480     2.1950   -13.6540 ca         1 0WR      -0.101000
     30 C23          0.6070     2.6500   -14.2980 ca         1 0WR      -0.110000
     31 C24         -0.3680     3.3250   -13.5970 ca         1 0WR      -0.050000
     32 C25         -0.2080     3.5520   -12.2290 ca         1 0WR       0.073400
     33 N8          -0.9720     4.1700   -11.2900 nc         1 0WR      -0.545100
     34 C26         -0.3740     4.1130   -10.1250 cd         1 0WR       0.316700
     35 N9          -0.8710     4.6400    -8.9530 nh         1 0WR      -0.427600
     36 C27         -1.1760     6.0690    -9.1050 c3         1 0WR       0.182100
     37 C28         -2.0530     3.8950    -8.5000 c3         1 0WR       0.182100
     38 H1          -0.3610     0.9920     0.2440 hc         1 0WR       0.015533
     39 H2          -0.3610    -0.2850    -0.9810 hc         1 0WR       0.015533
     40 H3          -0.3610    -0.7070     0.7370 hc         1 0WR       0.015533
     41 H5           1.5600    -0.6690     1.8390 ho         1 0WR       0.394000
     42 H6           1.8030    -1.1790    -1.7760 hc         1 0WR       0.015533
     43 H7           3.1150    -1.3230    -0.5980 hc         1 0WR       0.015533
     44 H8           1.5680    -2.1280    -0.3010 hc         1 0WR       0.015533
     45 H9           1.7540     2.1350    -0.1660 hc         1 0WR       0.036700
     46 H10          3.8540     0.2880    -1.3560 hc         1 0WR       0.033450
     47 H11          4.0000     1.1910     0.1620 hc         1 0WR       0.033450
     48 H12          3.7840     3.3130    -1.0740 h1         1 0WR       0.008950
     49 H13          5.1430     2.3630    -1.6990 h1         1 0WR       0.008950
     50 H14          1.7290     3.4310    -2.3240 h1         1 0WR       0.008950
     51 H15          1.5840     2.5660    -3.8640 h1         1 0WR       0.008950
     52 H16          1.6950     0.4110    -2.6690 hc         1 0WR       0.033450
     53 H17          0.3590     1.3990    -2.0520 hc         1 0WR       0.033450
     54 H20          0.5730     4.1290    -4.7870 h1         1 0WR       0.032367
     55 H21          1.1810     5.5600    -5.6300 h1         1 0WR       0.032367
     56 H22          1.8920     5.0750    -4.0850 h1         1 0WR       0.032367
     57 H23          6.1300     3.0140    -9.1510 h1         1 0WR       0.039450
     58 H24          6.0510     2.4170    -7.4840 h1         1 0WR       0.039450
     59 H25          8.1690     1.7560    -8.6270 h1         1 0WR       0.015950
     60 H26          7.2000     0.3520    -8.1440 h1         1 0WR       0.015950
     61 H27          6.0350    -0.2030   -11.5500 h1         1 0WR       0.015950
     62 H28          5.9240    -0.8180    -9.8910 h1         1 0WR       0.015950
     63 H29          4.8580     1.8470   -10.8940 h1         1 0WR       0.039450
     64 H30          3.8870     0.4310   -10.4480 h1         1 0WR       0.039450
     65 H31          2.8140     2.0550   -11.8050 ha         1 0WR       0.130000
     66 H32          2.5080     1.6640   -14.2160 ha         1 0WR       0.103000
     67 H33          0.4810     2.4730   -15.3590 ha         1 0WR       0.103000
     68 H34         -1.2570     3.6780   -14.1060 ha         1 0WR       0.109000
     69 H35         -1.9920     6.1910    -9.8070 h1         1 0WR       0.007033
     70 H36         -1.4600     6.4810    -8.1450 h1         1 0WR       0.007033
     71 H37         -0.3000     6.5880    -9.4760 h1         1 0WR       0.007033
     72 H38         -2.3460     4.2460    -7.5180 h1         1 0WR       0.007033
     73 H39         -1.8180     2.8390    -8.4510 h1         1 0WR       0.007033
     74 H40         -2.8680     4.0520    -9.1970 h1         1 0WR       0.007033
     75 C9           4.0200     3.5070    -3.7640 c3         1 0WR       0.165500
     76 C13          1.4560     4.7160    -5.0090 c3         1 0WR      -0.020400
     77 H18          5.1020     3.4670    -3.7230 h1         1 0WR       0.021700
     78 H19          3.6790     4.4630    -3.3840 h1         1 0WR       0.021700
@<TRIPOS>BOND
     1     1     4 1   
     2     1    38 1   
     3     1    39 1   
     4     1    40 1   
     5     2    13 1   
     6     2    15 1   
     7     2    75 1   
     8     3    23 1   
     9     3    24 1   
    10     4     6 1   
    11     4     7 1   
    12     4     9 1   
    13     5    17 2   
    14     5    18 1   
    15     6    41 1   
    16     7    42 1   
    17     7    43 1   
    18     7    44 1   
    19     8    17 1   
    20     8    19 1   
    21     8    76 1   
    22     9    11 1   
    23     9    16 1   
    24     9    45 1   
    25    10    19 ar  
    26    10    20 ar  
    27    11    13 1   
    28    11    46 1   
    29    11    47 1   
    30    12    20 ar  
    31    12    21 ar  
    32    13    48 1   
    33    13    49 1   
    34    14    21 1   
    35    14    22 1   
    36    14    25 1   
    37    15    16 1   
    38    15    50 1   
    39    15    51 1   
    40    16    52 1   
    41    16    53 1   
    42    17    75 1   
    43    18    19 ar  
    44    18    21 ar  
    45    20    26 1   
    46    22    23 1   
    47    22    57 1   
    48    22    58 1   
    49    23    59 1   
    50    23    60 1   
    51    24    25 1   
    52    24    61 1   
    53    24    62 1   
    54    25    63 1   
    55    25    64 1   
    56    26    27 1   
    57    26    34 1   
    58    27    28 ar  
    59    27    32 ar  
    60    28    29 ar  
    61    28    65 1   
    62    29    30 ar  
    63    29    66 1   
    64    30    31 ar  
    65    30    67 1   
    66    31    32 ar  
    67    31    68 1   
    68    32    33 1   
    69    33    34 2   
    70    34    35 1   
    71    35    36 1   
    72    35    37 1   
    73    36    69 1   
    74    36    70 1   
    75    36    71 1   
    76    37    72 1   
    77    37    73 1   
    78    37    74 1   
    79    54    76 1   
    80    55    76 1   
    81    56    76 1   
    82    75    77 1   
    83    75    78 1   
@<TRIPOS>SUBSTRUCTURE
     1 0WR         1 TEMP              0 ****  ****    0 ROOT
