@<TRIPOS>MOLECULE
molecule
   78    83     1     0     0
SMALL
bcc


@<TRIPOS>ATOM
      1 C1           0.0000     0.0000     0.0000 c3         1 0WR      -0.121600
      2 N1           3.4590     2.4260    -2.9430 n3         1 0WR      -0.719600
      3 O1           7.2050     0.7740   -10.1620 os         1 0WR      -0.426600
      4 C2           1.5300     0.0000     0.0000 c3         1 0WR       0.152800
      5 N2           4.1960     2.6600    -6.1030 nc         1 0WR      -0.558100
      6 O2           2.0060     0.0000     1.3480 oh         1 0WR      -0.605800
      7 C3           2.0410    -1.2480    -0.7210 c3         1 0WR      -0.121600
      8 N3           2.4310     3.8850    -5.7190 na         1 0WR      -0.246000
      9 C4           2.0400     1.2500    -0.7200 c3         1 0WR      -0.056700
     10 N4           1.5170     3.7260    -8.0350 nb         1 0WR      -0.756000
     11 C5           3.5660     1.1900    -0.8310 c3         1 0WR      -0.074900
     12 N5           2.8030     2.4630    -9.4950 nb         1 0WR      -0.827000
     13 C6           4.0640     2.4120    -1.6050 c3         1 0WR       0.159800
     14 N6           4.8100     1.4150    -8.8430 nh         1 0WR      -0.678300
     15 C7           1.9970     2.5300    -2.8630 c3         1 0WR       0.159800
     16 C8           1.4360     1.3110    -2.1260 c3         1 0WR      -0.074900
     17 C10          3.5650     3.3430    -5.1920 cd         1 0WR       0.419800
     18 C11          3.5100     2.7230    -7.2690 ca         1 0WR      -0.183200
     19 C12          2.3680     3.5080    -7.0360 ca         1 0WR       0.477800
     20 C14          1.7380     3.2090    -9.2310 ca         1 0WR       0.830500
     21 C15          3.7040     2.1950    -8.5580 ca         1 0WR       0.734200
     22 C16          6.0550     2.1310    -8.5280 c3         1 0WR       0.128300
     23 C17          7.2490     1.2120    -8.8010 c3         1 0WR       0.135400
     24 C18          6.0060     0.0720   -10.5030 c3         1 0WR       0.135400
     25 C19          4.8000     0.9800   -10.2470 c3         1 0WR       0.128300
     26 N7           0.8230     3.4590   -10.2500 na         1 0WR      -0.156100
     27 C20          0.9500     3.0890   -11.5820 ca         1 0WR      -0.069200
     28 C21          1.9210     2.4130   -12.3020 ca         1 0WR      -0.105000
     29 C22          1.7480     2.1950   -13.6540 ca         1 0WR      -0.127000
     30 C23          0.6070     2.6500   -14.2980 ca         1 0WR      -0.137000
     31 C24         -0.3680     3.3250   -13.5970 ca         1 0WR      -0.083000
     32 C25         -0.2080     3.5520   -12.2290 ca         1 0WR       0.101400
     33 N8          -0.9720     4.1700   -11.2900 nd         1 0WR      -0.627100
     34 C26         -0.3740     4.1130   -10.1250 cc         1 0WR       0.608700
     35 N9          -0.8710     4.6400    -8.9530 nh         1 0WR      -0.647600
     36 C27         -1.1760     6.0690    -9.1050 c3         1 0WR       0.166600
     37 C28         -2.0530     3.8950    -8.5000 c3         1 0WR       0.166600
     38 H1          -0.3610     0.9920     0.2440 hc         1 0WR       0.043200
     39 H2          -0.3610    -0.2850    -0.9810 hc         1 0WR       0.043200
     40 H3          -0.3610    -0.7070     0.7370 hc         1 0WR       0.043200
     41 H5           1.5600    -0.6690     1.8390 ho         1 0WR       0.403000
     42 H6           1.8030    -1.1790    -1.7760 hc         1 0WR       0.043200
     43 H7           3.1150    -1.3230    -0.5980 hc         1 0WR       0.043200
     44 H8           1.5680    -2.1280    -0.3010 hc         1 0WR       0.043200
     45 H9           1.7540     2.1350    -0.1660 hc         1 0WR       0.058700
     46 H10          3.8540     0.2880    -1.3560 hc         1 0WR       0.058700
     47 H11          4.0000     1.1910     0.1620 hc         1 0WR       0.058700
     48 H12          3.7840     3.3130    -1.0740 h1         1 0WR       0.034700
     49 H13          5.1430     2.3630    -1.6990 h1         1 0WR       0.034700
     50 H14          1.7290     3.4310    -2.3240 h1         1 0WR       0.034700
     51 H15          1.5840     2.5660    -3.8640 h1         1 0WR       0.034700
     52 H16          1.6950     0.4110    -2.6690 hc         1 0WR       0.058700
     53 H17          0.3590     1.3990    -2.0520 hc         1 0WR       0.058700
     54 H20          0.5730     4.1290    -4.7870 h1         1 0WR       0.058700
     55 H21          1.1810     5.5600    -5.6300 h1         1 0WR       0.058700
     56 H22          1.8920     5.0750    -4.0850 h1         1 0WR       0.058700
     57 H23          6.1300     3.0140    -9.1510 h1         1 0WR       0.065950
     58 H24          6.0510     2.4170    -7.4840 h1         1 0WR       0.065950
     59 H25          8.1690     1.7560    -8.6270 h1         1 0WR       0.057950
     60 H26          7.2000     0.3520    -8.1440 h1         1 0WR       0.057950
     61 H27          6.0350    -0.2030   -11.5500 h1         1 0WR       0.057950
     62 H28          5.9240    -0.8180    -9.8910 h1         1 0WR       0.057950
     63 H29          4.8580     1.8470   -10.8940 h1         1 0WR       0.065950
     64 H30          3.8870     0.4310   -10.4480 h1         1 0WR       0.065950
     65 H31          2.8140     2.0550   -11.8050 ha         1 0WR       0.154000
     66 H32          2.5080     1.6640   -14.2160 ha         1 0WR       0.133000
     67 H33          0.4810     2.4730   -15.3590 ha         1 0WR       0.132000
     68 H34         -1.2570     3.6780   -14.1060 ha         1 0WR       0.142000
     69 H35         -1.9920     6.1910    -9.8070 h1         1 0WR       0.042700
     70 H36         -1.4600     6.4810    -8.1450 h1         1 0WR       0.042700
     71 H37         -0.3000     6.5880    -9.4760 h1         1 0WR       0.042700
     72 H38         -2.3460     4.2460    -7.5180 h1         1 0WR       0.042700
     73 H39         -1.8180     2.8390    -8.4510 h1         1 0WR       0.042700
     74 H40         -2.8680     4.0520    -9.1970 h1         1 0WR       0.042700
     75 C9           4.0200     3.5070    -3.7640 c3         1 0WR       0.167500
     76 C13          1.4560     4.7160    -5.0090 c3         1 0WR       0.037600
     77 H18          5.1020     3.4670    -3.7230 h1         1 0WR       0.056200
     78 H19          3.6790     4.4630    -3.3840 h1         1 0WR       0.056200
@<TRIPOS>BOND
     1    36    35 1
     2    37    35 1
     3     1     4 1
     4    35    34 1
     5    16    15 1
     6    16     9 1
     7    15     2 1
     8     4     9 1
     9     4     7 1
    10     4     6 1
    11    34    33 2
    12    34    26 1
    13     9    11 1
    14    33    32 1
    15    76     8 1
    16     2    75 1
    17     2    13 1
    18    26    20 1
    19    26    27 1
    20    10    20 ar
    21    10    19 ar
    22    32    31 ar
    23    32    27 ar
    24     8    19 1
    25     8    17 1
    26    20    12 ar
    27    19    18 ar
    28    17    75 1
    29    17     5 2
    30    11    13 1
    31    31    30 ar
    32    12    21 ar
    33    27    28 ar
    34    18     5 1
    35    18    21 ar
    36    21    14 1
    37    14    25 1
    38    14    22 1
    39    30    29 ar
    40    25    24 1
    41    28    29 ar
    42    22    23 1
    43    24     3 1
    44    23     3 1
    45     1    38 1
    46     1    39 1
    47     1    40 1
    48     6    41 1
    49     7    42 1
    50     7    43 1
    51     7    44 1
    52     9    45 1
    53    11    46 1
    54    11    47 1
    55    13    48 1
    56    13    49 1
    57    15    50 1
    58    15    51 1
    59    16    52 1
    60    16    53 1
    61    75    77 1
    62    75    78 1
    63    76    54 1
    64    76    55 1
    65    76    56 1
    66    22    57 1
    67    22    58 1
    68    23    59 1
    69    23    60 1
    70    24    61 1
    71    24    62 1
    72    25    63 1
    73    25    64 1
    74    28    65 1
    75    29    66 1
    76    30    67 1
    77    31    68 1
    78    36    69 1
    79    36    70 1
    80    36    71 1
    81    37    72 1
    82    37    73 1
    83    37    74 1
@<TRIPOS>SUBSTRUCTURE
     1 0WR         1 TEMP              0 ****  ****    0 ROOT
