@<TRIPOS>MOLECULE
molecule
   20    21     1     0     0
SMALL
bcc


@<TRIPOS>ATOM
      1 C5           0.0000     0.0000     0.0000 ca         1 0WS      -0.209300
      2 C2           0.0690    -0.0020     2.3980 ca         1 0WS      -0.188300
      3 C3           1.4590    -0.0020     2.3100 ca         1 0WS       0.345300
      4 C4           1.3820     0.0000     0.0000 ca         1 0WS       0.372200
      5 C6           2.2740    -0.0030     3.5490 cc         1 0WS       0.319300
      6 O           -2.8700    -0.0000     0.1190 o          1 0WS      -0.828800
      7 C1          -0.6820    -0.0010     1.2220 ca         1 0WS      -0.081600
      8 O1          -2.7380    -0.0030     2.3350 o          1 0WS      -0.828800
      9 C           -2.1620    -0.0010     1.2660 c          1 0WS       0.881200
     10 N            2.0620     0.0000     1.1280 nb         1 0WS      -0.714000
     11 C8           3.6820     0.0030     3.6160 cc         1 0WS      -0.313300
     12 C7           4.0350     0.0000     4.9200 cd         1 0WS      -0.149300
     13 N2           2.9030    -0.0080     5.6570 na         1 0WS      -0.059600
     14 N1           1.8110    -0.0040     4.7810 nd         1 0WS      -0.502800
     15 H4          -0.5480     0.0000    -0.9340 ha         1 0WS       0.158000
     16 H2          -0.4210    -0.0030     3.3640 ha         1 0WS       0.168000
     17 H3           1.9140     0.0010    -0.9430 h4         1 0WS      -0.001900
     18 H6           4.3600     0.0100     2.7710 ha         1 0WS       0.163000
     19 H5           5.0470     0.0020     5.3060 h4         1 0WS       0.153000
     20 H            2.8540    -0.0110     6.6570 hn         1 0WS       0.316700
@<TRIPOS>BOND
     1     6     9 1
     2     9     8 1
     3     9     7 1
     4     1     7 ar
     5     1     4 ar
     6     7     2 ar
     7     4    10 ar
     8     2     3 ar
     9    10     3 ar
    10     3     5 1
    11     5    14 2
    12     5    11 1
    13    14    13 1
    14    11    12 2
    15    13    12 1
    16     1    15 1
    17     2    16 1
    18     4    17 1
    19    11    18 1
    20    12    19 1
    21    13    20 1
@<TRIPOS>SUBSTRUCTURE
     1 0WS         1 TEMP              0 ****  ****    0 ROOT
