@<TRIPOS>MOLECULE
0WS
   20    21     1     0     0
SMALL
bcc


@<TRIPOS>ATOM
      1 C5           0.0000     0.0000     0.0000 ca         1 0WS      -0.175300
      2 C2           0.0690    -0.0020     2.3980 ca         1 0WS      -0.155300
      3 C3           1.4590    -0.0020     2.3100 ca         1 0WS       0.288300
      4 C4           1.3820     0.0000     0.0000 ca         1 0WS       0.344200
      5 C6           2.2740    -0.0030     3.5490 cc         1 0WS       0.349300
      6 O           -2.8700    -0.0000     0.1190 o          1 0WS      -0.878800
      7 C1          -0.6820    -0.0010     1.2220 ca         1 0WS      -0.086600
      8 O1          -2.7380    -0.0030     2.3350 o          1 0WS      -0.878800
      9 C           -2.1620    -0.0010     1.2660 c          1 0WS       0.973200
     10 N            2.0620     0.0000     1.1280 nb         1 0WS      -0.603000
     11 C8           3.6820     0.0030     3.6160 cc         1 0WS      -0.298300
     12 C7           4.0350     0.0000     4.9200 cd         1 0WS      -0.296300
     13 N2           2.9030    -0.0080     5.6570 na         1 0WS       0.424400
     14 N1           1.8110    -0.0040     4.7810 nd         1 0WS      -0.653800
     15 H4          -0.5480     0.0000    -0.9340 ha         1 0WS       0.134000
     16 H2          -0.4210    -0.0030     3.3640 ha         1 0WS       0.144000
     17 H3           1.9140     0.0010    -0.9430 h4         1 0WS      -0.039900
     18 H6           4.3600     0.0100     2.7710 ha         1 0WS       0.141000
     19 H5           5.0470     0.0020     5.3060 h4         1 0WS       0.130000
     20 H            2.8540    -0.0110     6.6570 hn         1 0WS       0.136700
@<TRIPOS>BOND
     1     1     4 ar  
     2     1     7 ar  
     3     1    15 1   
     4     2     3 ar  
     5     2     7 ar  
     6     2    16 1   
     7     3     5 1   
     8     3    10 ar  
     9     4    10 ar  
    10     4    17 1   
    11     5    11 1   
    12     5    14 2   
    13     6     9 1   
    14     7     9 1   
    15     8     9 1   
    16    11    12 2   
    17    11    18 1   
    18    12    13 1   
    19    12    19 1   
    20    13    14 1   
    21    13    20 1   
@<TRIPOS>SUBSTRUCTURE
     1 0WS         1 TEMP              0 ****  ****    0 ROOT
