@<TRIPOS>MOLECULE
0WS
   20    21     1     0     0
SMALL
bcc


@<TRIPOS>ATOM
      1 C5          -0.0140     0.0850    -0.0320 ca         1 0WS      -0.212300
      2 C2           0.1560     0.0730     2.3610 ca         1 0WS      -0.196300
      3 C3           1.5560    -0.0520     2.2250 ca         1 0WS       0.324300
      4 C4           1.3850    -0.0440    -0.0740 ca         1 0WS       0.349200
      5 C6           2.3660    -0.1080     3.4440 cc         1 0WS       0.281300
      6 O           -2.8230     0.3150     0.2570 o          1 0WS      -0.824300
      7 C1          -0.6420     0.1460     1.2140 ca         1 0WS      -0.102600
      8 O1          -2.6500     0.3900     2.4850 o          1 0WS      -0.824300
      9 C           -2.1540     0.2940     1.3270 c          1 0WS       0.908200
     10 N            2.1730    -0.1110     1.0130 nb         1 0WS      -0.671000
     11 C8           1.9600     0.4500     4.7260 cc         1 0WS      -0.275300
     12 C7           3.0180     0.1660     5.5930 cd         1 0WS      -0.175300
     13 N2           3.9740    -0.5180     4.8330 na         1 0WS      -0.041600
     14 N1           3.5990    -0.6860     3.5640 nd         1 0WS      -0.494800
     15 H4          -0.6210     0.1380    -0.9470 ha         1 0WS       0.158000
     16 H2          -0.3290     0.1110     3.3490 ha         1 0WS       0.161000
     17 H3           1.9170    -0.0950    -1.0400 h4         1 0WS      -0.005900
     18 H6           1.0310     0.9700     4.9340 ha         1 0WS       0.175000
     19 H5           3.1650     0.3860     6.6480 h4         1 0WS       0.161000
     20 H            4.8430    -0.8720     5.1460 hn         1 0WS       0.305700
@<TRIPOS>BOND
     1     1     4 ar  
     2     1     7 ar  
     3     1    15 1   
     4     2     3 ar  
     5     2     7 ar  
     6     2    16 1   
     7     3     5 1   
     8     3    10 ar  
     9     4    10 ar  
    10     4    17 1   
    11     5    11 1   
    12     5    14 2   
    13     6     9 1   
    14     7     9 1   
    15     8     9 1   
    16    11    12 2   
    17    11    18 1   
    18    12    13 1   
    19    12    19 1   
    20    13    14 1   
    21    13    20 1   
@<TRIPOS>SUBSTRUCTURE
     1 0WS         1 TEMP              0 ****  ****    0 ROOT
