@<TRIPOS>MOLECULE
molecule
   45    49     1     0     0
SMALL
bcc


@<TRIPOS>ATOM
      1 Cl1          0.0000     0.0000     0.0000 cl         1 0WT      -0.076400
      2 C4           1.7360     0.0000     0.0000 cc         1 0WT      -0.026800
      3 C5           2.5360     0.0000     1.0790 cd         1 0WT      -0.015300
      4 C10          2.0640     0.0010     2.5100 c3         1 0WT      -0.027200
      5 C11          1.7850    -1.4370     2.9550 c3         1 0WT      -0.091100
      6 N1           3.8520    -0.0000     0.6810 na         1 0WT      -0.258100
      7 C3           2.6090    -0.0060    -1.1740 ca         1 0WT      -0.368400
      8 C6           2.4040    -0.0110    -2.5620 ca         1 0WT       0.698200
      9 N13          1.1250    -0.0080    -3.0890 nh         1 0WT      -0.653300
     10 C17          0.4110     1.2490    -2.7470 c3         1 0WT       0.178800
     11 C16         -0.7150     1.3560    -3.7970 cx         1 0WT      -0.125700
     12 C18         -0.3980     2.0400    -5.1280 cx         1 0WT       0.008500
     13 N19         -1.5300     2.5240    -5.9270 nz         1 0WT      -0.774600
     14 C15         -0.2220     0.5260    -4.9990 cx         1 0WT      -0.125700
     15 C14          1.1610    -0.0130    -4.5740 c3         1 0WT       0.178800
     16 N7           3.4680    -0.0180    -3.3590 nb         1 0WT      -0.814000
     17 C8           4.6950    -0.0200    -2.8570 ca         1 0WT       0.947300
     18 N9           4.9330    -0.0170    -1.5590 nb         1 0WT      -0.821000
     19 C2           3.9280    -0.0010    -0.6840 ca         1 0WT       0.554800
     20 O20          5.7470    -0.0270    -3.7120 os         1 0WT      -0.318400
     21 C21          6.9970     0.0710    -3.1860 ca         1 0WT      -0.155500
     22 C26          7.6040    -1.0240    -2.5800 ca         1 0WT       0.470200
     23 N25          8.8220    -0.8870    -2.0800 nb         1 0WT      -0.722000
     24 C24          9.4570     0.2660    -2.1510 ca         1 0WT       0.690900
     25 N23          8.9150     1.3260    -2.7160 nb         1 0WT      -0.722000
     26 C22          7.7030     1.2680    -3.2460 ca         1 0WT       0.470200
     27 H1           1.1560     0.5860     2.5900 hc         1 0WT       0.066200
     28 H2           2.8290     0.4330     3.1430 hc         1 0WT       0.066200
     29 H3           1.4630    -1.4390     3.9890 hc         1 0WT       0.048367
     30 H4           2.6880    -2.0270     2.8570 hc         1 0WT       0.048367
     31 H5           1.0060    -1.8620     2.3340 hc         1 0WT       0.048367
     32 H6           4.6380    -0.0010     1.3000 hn         1 0WT       0.326700
     33 H7          -0.0090     1.1840    -1.7500 h1         1 0WT       0.091200
     34 H8           1.0820     2.0970    -2.8270 h1         1 0WT       0.091200
     35 H9          -1.7420     1.1280    -3.5400 hc         1 0WT       0.116700
     36 H10          0.5270     2.6040    -5.1380 hx         1 0WT       0.163700
     37 H11         -1.7860     3.4430    -5.6220 hn         1 0WT       0.458800
     38 H12         -2.3090     1.9060    -5.8120 hn         1 0WT       0.458800
     39 H14         -0.9900    -0.1400    -5.3750 hc         1 0WT       0.116700
     40 H15          1.9460     0.6410    -4.9340 h1         1 0WT       0.091200
     41 H16          1.3020    -1.0220    -4.9430 h1         1 0WT       0.091200
     42 H17          7.0880    -1.9750    -2.5170 h4         1 0WT       0.040600
     43 H18         10.4520     0.3450    -1.7300 h5         1 0WT       0.072100
     44 H19          7.2630     2.1440    -3.7080 h4         1 0WT       0.040600
     45 H193        -1.2640     2.5680    -6.8910 hn         1 0WT       0.458800
@<TRIPOS>BOND
     1    25    24 ar
     2    25    26 ar
     3    24    23 ar
     4    23    22 ar
     5    26    21 ar
     6    22    21 ar
     7    21    20 1
     8    13    12 1
     9    20    17 1
    10    12    11 1
    11    12    14 1
    12    11    10 1
    13    11    14 1
    14    17    16 ar
    15    17    18 ar
    16    16     8 ar
    17    10     9 1
    18    18    19 ar
    19    14    15 1
    20     8     9 1
    21     8     7 ar
    22     9    15 1
    23    19     7 ar
    24    19     6 1
    25     7     2 1
    26     6     3 1
    27     2     3 2
    28     2     1 1
    29     3     4 1
    30     4     5 1
    31     4    27 1
    32     4    28 1
    33     5    29 1
    34     5    30 1
    35     5    31 1
    36     6    32 1
    37    10    33 1
    38    10    34 1
    39    11    35 1
    40    12    36 1
    41    13    37 1
    42    13    38 1
    43    14    39 1
    44    15    40 1
    45    15    41 1
    46    22    42 1
    47    24    43 1
    48    26    44 1
    49    45    13 1
@<TRIPOS>SUBSTRUCTURE
     1 0WT         1 TEMP              0 ****  ****    0 ROOT
