@<TRIPOS>MOLECULE
0WT
   45    49     1     0     0
SMALL
bcc


@<TRIPOS>ATOM
      1 Cl1          0.0190     0.5160     0.1910 cl         1 0WT      -0.022400
      2 C4           1.6810     0.4190     0.2060 cc         1 0WT      -0.030800
      3 C5           2.5100     0.6510     1.3160 cd         1 0WT      -0.015300
      4 C10          2.0740     1.0260     2.6810 c3         1 0WT      -0.036200
      5 C11          3.1880     1.1840     3.6820 c3         1 0WT      -0.107100
      6 N1           3.8530     0.4740     0.9440 na         1 0WT      -0.259100
      7 C3           2.5260     0.0860    -0.9090 ca         1 0WT      -0.278400
      8 C6           2.3600    -0.2490    -2.2700 ca         1 0WT       0.663200
      9 N13          1.0200    -0.3120    -2.8100 nh         1 0WT      -0.684300
     10 C17          0.7790     0.6270    -3.9230 c3         1 0WT       0.173800
     11 C16          0.4500    -0.1770    -5.1810 cx         1 0WT      -0.111200
     12 C18          1.5340    -1.1550    -5.6010 cx         1 0WT      -0.019500
     13 N19          1.7020    -1.5770    -6.9960 nz         1 0WT      -0.790600
     14 C15          0.3630    -1.6290    -4.7580 cx         1 0WT      -0.111200
     15 C14          0.6310    -1.6650    -3.2550 c3         1 0WT       0.173800
     16 N7           3.4470    -0.5130    -3.0470 nb         1 0WT      -0.841000
     17 C8           4.6840    -0.4390    -2.4540 ca         1 0WT       0.853300
     18 N9           5.0090    -0.1240    -1.1680 nb         1 0WT      -0.660000
     19 C2           3.9040     0.1310    -0.4040 ca         1 0WT       0.473800
     20 O20          5.8260    -0.7600    -3.2140 os         1 0WT      -0.313400
     21 C21          5.6870    -0.6510    -4.5890 ca         1 0WT      -0.114500
     22 C26          6.4540     0.3210    -5.2820 ca         1 0WT       0.433200
     23 N25          6.4040     0.4120    -6.6240 nb         1 0WT      -0.716500
     24 C24          5.5620    -0.4460    -7.2630 ca         1 0WT       0.629900
     25 N23          4.7890    -1.4090    -6.6910 nb         1 0WT      -0.716500
     26 C22          4.8920    -1.5330    -5.3490 ca         1 0WT       0.433200
     27 H1           1.3530     0.2370     3.0390 hc         1 0WT       0.080700
     28 H2           1.4950     1.9890     2.6040 hc         1 0WT       0.080700
     29 H3           3.7610     0.2330     3.8060 hc         1 0WT       0.049033
     30 H4           3.8950     1.9940     3.3790 hc         1 0WT       0.049033
     31 H5           2.7570     1.4580     4.6770 hc         1 0WT       0.049033
     32 H6           4.6330     0.5800     1.5460 hn         1 0WT       0.332700
     33 H7           1.6380     1.3260    -4.0990 h1         1 0WT       0.092200
     34 H8          -0.1270     1.2340    -3.6360 h1         1 0WT       0.092200
     35 H9          -0.2200     0.3040    -5.9080 hc         1 0WT       0.122700
     36 H10          2.5430    -1.0660    -5.1240 hx         1 0WT       0.177700
     37 H11          2.2860    -2.4240    -7.0230 hn         1 0WT       0.463133
     38 H12          0.8000    -1.7720    -7.4380 hn         1 0WT       0.463133
     39 H14         -0.3790    -2.3460    -5.1390 hc         1 0WT       0.122700
     40 H15          1.3950    -2.4460    -2.9950 h1         1 0WT       0.092200
     41 H16         -0.3300    -1.9130    -2.7220 h1         1 0WT       0.092200
     42 H17          7.1230     1.0190    -4.7440 h4         1 0WT       0.053100
     43 H18          5.5200    -0.3540    -8.3700 h5         1 0WT       0.064100
     44 H19          4.3340    -2.3560    -4.8670 h4         1 0WT       0.053100
     45 H193         2.1830    -0.8350    -7.5180 hn         1 0WT       0.463133
@<TRIPOS>BOND
     1     1     2 1   
     2     2     3 2   
     3     2     7 1   
     4     3     4 1   
     5     3     6 1   
     6     4     5 1   
     7     4    27 1   
     8     4    28 1   
     9     5    29 1   
    10     5    30 1   
    11     5    31 1   
    12     6    19 1   
    13     6    32 1   
    14     7     8 ar  
    15     7    19 ar  
    16     8     9 1   
    17     8    16 ar  
    18     9    10 1   
    19     9    15 1   
    20    10    11 1   
    21    10    33 1   
    22    10    34 1   
    23    11    12 1   
    24    11    14 1   
    25    11    35 1   
    26    12    13 1   
    27    12    14 1   
    28    12    36 1   
    29    13    37 1   
    30    13    38 1   
    31    13    45 1   
    32    14    15 1   
    33    14    39 1   
    34    15    40 1   
    35    15    41 1   
    36    16    17 ar  
    37    17    18 ar  
    38    17    20 1   
    39    18    19 ar  
    40    20    21 1   
    41    21    22 ar  
    42    21    26 ar  
    43    22    23 ar  
    44    22    42 1   
    45    23    24 ar  
    46    24    25 ar  
    47    24    43 1   
    48    25    26 ar  
    49    26    44 1   
@<TRIPOS>SUBSTRUCTURE
     1 0WT         1 TEMP              0 ****  ****    0 ROOT
