@<TRIPOS>MOLECULE
0WT
   45    49     1     0     0
SMALL
bcc


@<TRIPOS>ATOM
      1 Cl1          0.0000     0.0000     0.0000 cl         1 0WT       0.026600
      2 C4           1.7360     0.0000     0.0000 cc         1 0WT      -0.079800
      3 C5           2.5360     0.0000     1.0790 cd         1 0WT      -0.225300
      4 C10          2.0640     0.0010     2.5100 c3         1 0WT       0.056800
      5 C11          1.7850    -1.4370     2.9550 c3         1 0WT       0.005900
      6 N1           3.8520    -0.0000     0.6810 na         1 0WT       0.299900
      7 C3           2.6090    -0.0060    -1.1740 ca         1 0WT      -0.374400
      8 C6           2.4040    -0.0110    -2.5620 ca         1 0WT       0.586200
      9 N13          1.1250    -0.0080    -3.0890 nh         1 0WT      -0.456300
     10 C17          0.4110     1.2490    -2.7470 c3         1 0WT       0.165800
     11 C16         -0.7150     1.3560    -3.7970 cx         1 0WT      -0.079700
     12 C18         -0.3980     2.0400    -5.1280 cx         1 0WT      -0.185500
     13 N19         -1.5300     2.5240    -5.9270 nz         1 0WT       0.148400
     14 C15         -0.2220     0.5260    -4.9990 cx         1 0WT      -0.079700
     15 C14          1.1610    -0.0130    -4.5740 c3         1 0WT       0.165800
     16 N7           3.4680    -0.0180    -3.3590 nb         1 0WT      -0.700000
     17 C8           4.6950    -0.0200    -2.8570 ca         1 0WT       0.858300
     18 N9           4.9330    -0.0170    -1.5590 nb         1 0WT      -0.691000
     19 C2           3.9280    -0.0010    -0.6840 ca         1 0WT       0.313800
     20 O20          5.7470    -0.0270    -3.7120 os         1 0WT      -0.307400
     21 C21          6.9970     0.0710    -3.1860 ca         1 0WT      -0.140500
     22 C26          7.6040    -1.0240    -2.5800 ca         1 0WT       0.440700
     23 N25          8.8220    -0.8870    -2.0800 nb         1 0WT      -0.611000
     24 C24          9.4570     0.2660    -2.1510 ca         1 0WT       0.634900
     25 N23          8.9150     1.3260    -2.7160 nb         1 0WT      -0.611000
     26 C22          7.7030     1.2680    -3.2460 ca         1 0WT       0.440700
     27 H1           1.1560     0.5860     2.5900 hc         1 0WT       0.026200
     28 H2           2.8290     0.4330     3.1430 hc         1 0WT       0.026200
     29 H3           1.4630    -1.4390     3.9890 hc         1 0WT       0.011367
     30 H4           2.6880    -2.0270     2.8570 hc         1 0WT       0.011367
     31 H5           1.0060    -1.8620     2.3340 hc         1 0WT       0.011367
     32 H6           4.6380    -0.0010     1.3000 hn         1 0WT       0.134700
     33 H7          -0.0090     1.1840    -1.7500 h1         1 0WT       0.054950
     34 H8           1.0820     2.0970    -2.8270 h1         1 0WT       0.054950
     35 H9          -1.7420     1.1280    -3.5400 hc         1 0WT       0.087200
     36 H10          0.5270     2.6040    -5.1380 hx         1 0WT       0.138700
     37 H11         -1.7860     3.4430    -5.6220 hn         1 0WT       0.217800
     38 H12         -2.3090     1.9060    -5.8120 hn         1 0WT       0.217800
     39 H14         -0.9900    -0.1400    -5.3750 hc         1 0WT       0.087200
     40 H15          1.9460     0.6410    -4.9340 h1         1 0WT       0.054950
     41 H16          1.3020    -1.0220    -4.9430 h1         1 0WT       0.054950
     42 H17          7.0880    -1.9750    -2.5170 h4         1 0WT      -0.007400
     43 H18         10.4520     0.3450    -1.7300 h5         1 0WT       0.008100
     44 H19          7.2630     2.1440    -3.7080 h4         1 0WT      -0.007400
     45 H193        -1.2640     2.5680    -6.8910 hn         1 0WT       0.217800
@<TRIPOS>BOND
     1     1     2 1   
     2     2     3 2   
     3     2     7 1   
     4     3     4 1   
     5     3     6 1   
     6     4     5 1   
     7     4    27 1   
     8     4    28 1   
     9     5    29 1   
    10     5    30 1   
    11     5    31 1   
    12     6    19 1   
    13     6    32 1   
    14     7     8 ar  
    15     7    19 ar  
    16     8     9 1   
    17     8    16 ar  
    18     9    10 1   
    19     9    15 1   
    20    10    11 1   
    21    10    33 1   
    22    10    34 1   
    23    11    12 1   
    24    11    14 1   
    25    11    35 1   
    26    12    13 1   
    27    12    14 1   
    28    12    36 1   
    29    13    37 1   
    30    13    38 1   
    31    13    45 1   
    32    14    15 1   
    33    14    39 1   
    34    15    40 1   
    35    15    41 1   
    36    16    17 ar  
    37    17    18 ar  
    38    17    20 1   
    39    18    19 ar  
    40    20    21 1   
    41    21    22 ar  
    42    21    26 ar  
    43    22    23 ar  
    44    22    42 1   
    45    23    24 ar  
    46    24    25 ar  
    47    24    43 1   
    48    25    26 ar  
    49    26    44 1   
@<TRIPOS>SUBSTRUCTURE
     1 0WT         1 TEMP              0 ****  ****    0 ROOT
