@<TRIPOS>MOLECULE
0WU
   25    25     1     0     0
SMALL
bcc


@<TRIPOS>ATOM
      1 C4          -0.0620     0.0040    -0.0190 c3         1 0WU      -0.059200
      2 C5           1.4610    -0.0210    -0.0070 c3         1 0WU      -0.020500
      3 C6           1.9610    -0.0960     1.4300 c3         1 0WU      -0.176400
      4 C8           2.0470    -1.1230    -0.8340 c2         1 0WU      -0.111400
      5 C9           1.3240    -2.0520    -1.4650 c2         1 0WU      -0.224000
      6 C10          3.5300    -1.1070    -0.9360 c3         1 0WU      -0.064900
      7 C3          -0.6020     1.0370     0.8960 c2         1 0WU      -0.109200
      8 C1           1.4350     1.0360     2.2710 c          1 0WU       0.569300
      9 O1           2.1110     1.5180     3.1880 o          1 0WU      -0.533100
     10 C2           0.0710     1.5150     1.9560 ce         1 0WU      -0.196400
     11 H1          -0.4650    -0.9960     0.3040 hc         1 0WU       0.061200
     12 H2          -0.4240     0.1910    -1.0650 hc         1 0WU       0.061200
     13 H3           1.8230     0.9540    -0.4510 hc         1 0WU       0.063700
     14 H4           1.6270    -1.0590     1.9010 hc         1 0WU       0.075200
     15 H5           3.0830    -0.0810     1.4480 hc         1 0WU       0.075200
     16 H6          -0.6210     2.1010     3.8920 hc         1 0WU       0.049367
     17 H7           0.2130     3.4010     2.9530 hc         1 0WU       0.049367
     18 H8          -1.4810     2.9090     2.5090 hc         1 0WU       0.049367
     19 H9           1.7940    -2.8300    -2.0810 ha         1 0WU       0.114000
     20 H10          0.2290    -2.1060    -1.4200 ha         1 0WU       0.114000
     21 H11          3.9810    -1.5510    -0.0130 hc         1 0WU       0.044700
     22 H12          3.9090    -0.0610    -1.0420 hc         1 0WU       0.044700
     23 H13          3.8810    -1.7010    -1.8150 hc         1 0WU       0.044700
     24 H14         -1.6210     1.3910     0.6670 ha         1 0WU       0.131000
     25 C7          -0.4920     2.5360     2.8690 c3         1 0WU      -0.051900
@<TRIPOS>BOND
     1     1     2 1   
     2     1     7 1   
     3     1    11 1   
     4     1    12 1   
     5     2     3 1   
     6     2     4 1   
     7     2    13 1   
     8     3     8 1   
     9     3    14 1   
    10     3    15 1   
    11     4     5 2   
    12     4     6 1   
    13     5    19 1   
    14     5    20 1   
    15     6    21 1   
    16     6    22 1   
    17     6    23 1   
    18     7    10 2   
    19     7    24 1   
    20     8     9 2   
    21     8    10 1   
    22    10    25 1   
    23    16    25 1   
    24    17    25 1   
    25    18    25 1   
@<TRIPOS>SUBSTRUCTURE
     1 0WU         1 TEMP              0 ****  ****    0 ROOT
