@<TRIPOS>MOLECULE
0WU
   25    25     1     0     0
SMALL
bcc


@<TRIPOS>ATOM
      1 C4           0.0000     0.0000     0.0000 c3         1 0WU       0.002800
      2 C5           1.5280     0.0000     0.0000 c3         1 0WU       0.074500
      3 C6           2.0280     0.0000     1.4510 c3         1 0WU      -0.263400
      4 C8           2.0310    -1.2320    -0.7070 c2         1 0WU      -0.149400
      5 C9           2.7860    -1.1130    -1.7720 c2         1 0WU      -0.165000
      6 C10          1.6690    -2.6000    -0.1890 c3         1 0WU       0.055100
      7 C3          -0.5410     1.1140     0.8460 c2         1 0WU      -0.091200
      8 C1           1.5320     1.2770     2.0980 c          1 0WU       0.662300
      9 O1           2.2480     1.9290     2.8290 o          1 0WU      -0.581100
     10 C2           0.1560     1.6990     1.8110 ce         1 0WU      -0.223400
     11 H1          -0.3540    -0.9460     0.3920 hc         1 0WU       0.033200
     12 H2          -0.3540     0.1240    -1.0160 hc         1 0WU       0.033200
     13 H3           1.8890     0.8870    -0.5060 hc         1 0WU       0.016700
     14 H4           2.4220     0.7240     0.7480 hc         1 0WU       0.083200
     15 H5           2.9320    -0.4990     1.7780 hc         1 0WU       0.083200
     16 H6          -1.5290     2.8570     2.4010 hc         1 0WU       0.010367
     17 H7          -0.0000     3.7470     2.3660 hc         1 0WU       0.010367
     18 H8          -0.3280     2.6040     3.6760 hc         1 0WU       0.010367
     19 H9           3.0470    -0.1300    -2.1440 ha         1 0WU       0.089000
     20 H10          3.1490    -1.9990    -2.2810 ha         1 0WU       0.089000
     21 H11          1.3440    -2.5210     0.8420 hc         1 0WU       0.013033
     22 H12          2.5340    -3.2490    -0.2450 hc         1 0WU       0.013033
     23 H13          0.8680    -3.0130    -0.7890 hc         1 0WU       0.013033
     24 H14         -1.5510     1.4580     0.6590 ha         1 0WU       0.103000
     25 C7          -0.4690     2.8040     2.6200 c3         1 0WU       0.076100
@<TRIPOS>BOND
     1     1     2 1   
     2     1     7 1   
     3     1    11 1   
     4     1    12 1   
     5     2     3 1   
     6     2     4 1   
     7     2    13 1   
     8     3     8 1   
     9     3    14 1   
    10     3    15 1   
    11     4     5 2   
    12     4     6 1   
    13     5    19 1   
    14     5    20 1   
    15     6    21 1   
    16     6    22 1   
    17     6    23 1   
    18     7    10 2   
    19     7    24 1   
    20     8     9 2   
    21     8    10 1   
    22    10    25 1   
    23    16    25 1   
    24    17    25 1   
    25    18    25 1   
@<TRIPOS>SUBSTRUCTURE
     1 0WU         1 TEMP              0 ****  ****    0 ROOT
