@<TRIPOS>MOLECULE
molecule
   25    25     1     0     0
SMALL
bcc


@<TRIPOS>ATOM
      1 C4           0.0000     0.0000     0.0000 c3         1 0WU      -0.051200
      2 C5           1.5280     0.0000     0.0000 c3         1 0WU      -0.024500
      3 C6           2.0280     0.0000     1.4510 c3         1 0WU      -0.170400
      4 C8           2.0310    -1.2320    -0.7070 c2         1 0WU      -0.130400
      5 C9           2.7860    -1.1130    -1.7720 c2         1 0WU      -0.216000
      6 C10          1.6690    -2.6000    -0.1890 c3         1 0WU      -0.054900
      7 C3          -0.5410     1.1140     0.8460 c2         1 0WU      -0.115200
      8 C1           1.5320     1.2770     2.0980 c          1 0WU       0.571300
      9 O1           2.2480     1.9290     2.8290 o          1 0WU      -0.522100
     10 C2           0.1560     1.6990     1.8110 ce         1 0WU      -0.208400
     11 H1          -0.3540     0.1240    -1.0160 hc         1 0WU       0.059700
     12 H2          -0.3540    -0.9460     0.3920 hc         1 0WU       0.059700
     13 H3           1.8890     0.8870    -0.5060 hc         1 0WU       0.064700
     14 H4           1.6280    -0.8580     1.9770 hc         1 0WU       0.074200
     15 H5           3.1110    -0.0230     1.4660 hc         1 0WU       0.074200
     16 H6          -1.5300     2.8540     2.4050 hc         1 0WU       0.046700
     17 H7          -0.0040     3.7480     2.3620 hc         1 0WU       0.046700
     18 H8          -0.3230     2.6070     3.6750 hc         1 0WU       0.046700
     19 H9           3.1490    -1.9990    -2.2800 ha         1 0WU       0.115500
     20 H10          3.0480    -0.1300    -2.1430 ha         1 0WU       0.115500
     21 H11          1.1560    -2.5020     0.7610 hc         1 0WU       0.043033
     22 H12          1.0190    -3.0950    -0.9000 hc         1 0WU       0.043033
     23 H13          2.5700    -3.1860    -0.0540 hc         1 0WU       0.043033
     24 H14         -1.5510     1.4580     0.6590 ha         1 0WU       0.128000
     25 C7          -0.4690     2.8040     2.6200 c3         1 0WU      -0.039900
@<TRIPOS>BOND
     1    25    10 1   
     2     7    10 2   
     3     7     1 1   
     4    10     8 1   
     5     1     2 1   
     6     8     9 2   
     7     8     3 1   
     8     5     4 2   
     9     2     3 1   
    10     2     4 1   
    11     4     6 1   
    12     1    11 1   
    13     1    12 1   
    14     2    13 1   
    15     3    14 1   
    16     3    15 1   
    17    25    16 1   
    18    25    17 1   
    19    25    18 1   
    20     5    19 1   
    21     5    20 1   
    22     6    21 1   
    23     6    22 1   
    24     6    23 1   
    25     7    24 1   
@<TRIPOS>SUBSTRUCTURE
     1 0WU         1 TEMP              0 ****  ****    0 ROOT
