@<TRIPOS>MOLECULE
0WV
   23    23     1     0     0
SMALL
bcc


@<TRIPOS>ATOM
      1 C4           0.0000     0.0000     0.0000 ca         1 0WV      -0.114000
      2 C5           1.3950     0.0000     0.0000 ca         1 0WV      -0.024800
      3 C6           2.0870     0.0000     1.2110 ca         1 0WV      -0.159000
      4 C8           2.1380    -0.0000    -1.2780 ce         1 0WV      -0.081400
      5 C9           2.8900     1.0400    -1.6080 c2         1 0WV      -0.163000
      6 C10          2.0390    -1.1840    -2.2060 c3         1 0WV       0.062100
      7 C3          -0.6900     0.0050     1.1950 ca         1 0WV      -0.077000
      8 C1           1.3850    -0.0000     2.4050 ca         1 0WV       0.133100
      9 O1           2.0560    -0.0000     3.5880 oh         1 0WV      -0.490100
     10 C2          -0.0030     0.0110     2.3950 ca         1 0WV      -0.118300
     11 H1          -0.5420    -0.0020    -0.9380 ha         1 0WV       0.108000
     12 H2           3.1710    -0.0000     1.2180 ha         1 0WV       0.116000
     13 H3          -0.4100     0.8310     4.3160 hc         1 0WV       0.008367
     14 H4          -0.6060    -0.9240     4.2090 hc         1 0WV       0.008367
     15 H5          -1.8200     0.1480     3.4960 hc         1 0WV       0.008367
     16 H6           2.9610     1.8900    -0.9410 ha         1 0WV       0.089500
     17 H7           3.4340     1.0400    -2.5450 ha         1 0WV       0.089500
     18 H8           1.6560    -2.0390    -1.6620 hc         1 0WV       0.007700
     19 H9           1.3680    -0.9470    -3.0230 hc         1 0WV       0.007700
     20 H10          3.0200    -1.4170    -2.6010 hc         1 0WV       0.007700
     21 H11         -1.7730     0.0050     1.1920 ha         1 0WV       0.107000
     22 H12          2.6730    -0.7130     3.5990 ho         1 0WV       0.402000
     23 C7          -0.7630     0.0170     3.6950 c3         1 0WV       0.073200
@<TRIPOS>BOND
     1     1     2 ar  
     2     1     7 ar  
     3     1    11 1   
     4     2     3 ar  
     5     2     4 1   
     6     3     8 ar  
     7     3    12 1   
     8     4     5 2   
     9     4     6 1   
    10     5    16 1   
    11     5    17 1   
    12     6    18 1   
    13     6    19 1   
    14     6    20 1   
    15     7    10 ar  
    16     7    21 1   
    17     8     9 1   
    18     8    10 ar  
    19     9    22 1   
    20    10    23 1   
    21    13    23 1   
    22    14    23 1   
    23    15    23 1   
@<TRIPOS>SUBSTRUCTURE
     1 0WV         1 TEMP              0 ****  ****    0 ROOT
