@<TRIPOS>MOLECULE
0WV
   23    23     1     0     0
SMALL
bcc


@<TRIPOS>ATOM
      1 C4           0.1150     0.2810    -0.0210 ca         1 0WV      -0.150000
      2 C5           1.4970     0.0640     0.0570 ca         1 0WV      -0.020800
      3 C6           2.0820    -0.1710     1.3080 ca         1 0WV      -0.200000
      4 C8           2.3260     0.0820    -1.1510 ce         1 0WV      -0.062400
      5 C9           3.5650     0.5910    -1.1550 c2         1 0WV      -0.213000
      6 C10          1.7160    -0.4880    -2.3800 c3         1 0WV      -0.059900
      7 C3          -0.6690     0.2710     1.1300 ca         1 0WV      -0.102000
      8 C1           1.2830    -0.1830     2.4570 ca         1 0WV       0.118100
      9 O1           1.8090    -0.4130     3.7100 oh         1 0WV      -0.498100
     10 C2          -0.1070     0.0400     2.3870 ca         1 0WV      -0.096300
     11 H1          -0.3540     0.4650    -0.9980 ha         1 0WV       0.135000
     12 H2           3.1630    -0.3530     1.3860 ha         1 0WV       0.135000
     13 H3          -0.7380    -0.9080     4.1970 hc         1 0WV       0.047033
     14 H4          -2.0180     0.0930     3.3790 hc         1 0WV       0.047033
     15 H5          -0.6500     0.8960     4.2690 hc         1 0WV       0.047033
     16 H6           4.1880     0.6030    -2.0590 ha         1 0WV       0.115500
     17 H7           4.0260     1.0320    -0.2620 ha         1 0WV       0.115500
     18 H8           1.1620    -1.4300    -2.1440 hc         1 0WV       0.044700
     19 H9           0.9920     0.2430    -2.8230 hc         1 0WV       0.044700
     20 H10          2.4950    -0.7170    -3.1480 hc         1 0WV       0.044700
     21 H11         -1.7530     0.4480     1.0500 ha         1 0WV       0.134000
     22 H12          2.7600    -0.5650     3.6090 ho         1 0WV       0.417000
     23 C7          -0.9280     0.0290     3.6170 c3         1 0WV      -0.042800
@<TRIPOS>BOND
     1     1     2 ar  
     2     1     7 ar  
     3     1    11 1   
     4     2     3 ar  
     5     2     4 1   
     6     3     8 ar  
     7     3    12 1   
     8     4     5 2   
     9     4     6 1   
    10     5    16 1   
    11     5    17 1   
    12     6    18 1   
    13     6    19 1   
    14     6    20 1   
    15     7    10 ar  
    16     7    21 1   
    17     8     9 1   
    18     8    10 ar  
    19     9    22 1   
    20    10    23 1   
    21    13    23 1   
    22    14    23 1   
    23    15    23 1   
@<TRIPOS>SUBSTRUCTURE
     1 0WV         1 TEMP              0 ****  ****    0 ROOT
