@<TRIPOS>MOLECULE
molecule
   23    23     1     0     0
SMALL
bcc


@<TRIPOS>ATOM
      1 C4           0.0000     0.0000     0.0000 ca         1 0WV      -0.132000
      2 C5           1.3950     0.0000     0.0000 ca         1 0WV      -0.035800
      3 C6           2.0870     0.0000     1.2110 ca         1 0WV      -0.172000
      4 C8           2.1380    -0.0000    -1.2780 ce         1 0WV      -0.079400
      5 C9           2.8900     1.0400    -1.6080 c2         1 0WV      -0.211000
      6 C10          2.0390    -1.1840    -2.2060 c3         1 0WV      -0.049900
      7 C3          -0.6900     0.0050     1.1950 ca         1 0WV      -0.110000
      8 C1           1.3850    -0.0000     2.4050 ca         1 0WV       0.113100
      9 O1           2.0560    -0.0000     3.5880 oh         1 0WV      -0.513100
     10 C2          -0.0030     0.0110     2.3950 ca         1 0WV      -0.099300
     11 H1          -0.5420    -0.0020    -0.9380 ha         1 0WV       0.135000
     12 H2           3.1710    -0.0000     1.2180 ha         1 0WV       0.139000
     13 H3          -1.8200     0.1470     3.4960 hc         1 0WV       0.045033
     14 H4          -0.4100     0.8320     4.3160 hc         1 0WV       0.045033
     15 H5          -0.6060    -0.9230     4.2100 hc         1 0WV       0.045033
     16 H6           3.4340     1.0400    -2.5450 ha         1 0WV       0.118000
     17 H7           2.9610     1.8910    -0.9410 ha         1 0WV       0.118000
     18 H8           1.3690    -0.9470    -3.0240 hc         1 0WV       0.043367
     19 H9           1.6560    -2.0390    -1.6620 hc         1 0WV       0.043367
     20 H10          3.0200    -1.4170    -2.6000 hc         1 0WV       0.043367
     21 H11         -1.7730     0.0050     1.1920 ha         1 0WV       0.135000
     22 H12          2.6730    -0.7130     3.5990 ho         1 0WV       0.419000
     23 C7          -0.7630     0.0170     3.6950 c3         1 0WV      -0.038800
@<TRIPOS>BOND
     1    23    10 1   
     2     7    10 ar  
     3     7     1 ar  
     4    10     8 ar  
     5     1     2 ar  
     6     8     9 1   
     7     8     3 ar  
     8     2     3 ar  
     9     2     4 1   
    10     6     4 1   
    11     4     5 2   
    12     1    11 1   
    13     3    12 1   
    14    23    13 1   
    15    23    14 1   
    16    23    15 1   
    17     5    16 1   
    18     5    17 1   
    19     6    18 1   
    20     6    19 1   
    21     6    20 1   
    22     7    21 1   
    23     9    22 1   
@<TRIPOS>SUBSTRUCTURE
     1 0WV         1 TEMP              0 ****  ****    0 ROOT
