@<TRIPOS>MOLECULE
0WW
   60    64     1     0     0
SMALL
bcc


@<TRIPOS>ATOM
      1 C1          -0.0400    -0.7560    -0.2020 c3         1 0WW       0.097800
      2 N1           0.9060     0.3220    -0.6210 ny         1 0WW      -0.759000
      3 C2           1.7740     0.7940     0.5020 c3         1 0WW       0.106800
      4 C3           1.0870     1.8210     1.4080 c3         1 0WW      -0.019100
      5 C4           1.7040     1.7890     2.7580 ca         1 0WW      -0.140300
      6 C5           1.3940     0.7520     3.6740 ca         1 0WW       0.196400
      7 N2           0.5170    -0.2770     3.2850 nc         1 0WW      -0.700100
      8 C6           0.2160    -1.1990     4.1730 cd         1 0WW       0.520800
      9 N3           0.6980    -1.2800     5.4640 ns         1 0WW      -0.492400
     10 C7           1.6100    -0.3100     5.9370 c          1 0WW       0.706100
     11 C8           1.9710     0.7590     4.9820 ca         1 0WW      -0.202600
     12 C9           2.8620     1.7470     5.4070 ca         1 0WW       0.017000
     13 C10          3.1840     2.7690     4.5180 ca         1 0WW       0.078400
     14 C11          2.5850     2.7840     3.1880 ca         1 0WW      -0.019200
     15 N4           3.0860     3.9210     2.5580 na         1 0WW      -0.310300
     16 C12          3.9650     4.5610     3.5010 cc         1 0WW       0.622700
     17 N5           4.0260     3.8830     4.6830 nd         1 0WW      -0.581100
     18 N6           4.7330     5.6770     3.1330 nu         1 0WW      -0.774200
     19 C13          4.0560     6.7420     2.4060 c3         1 0WW       0.270100
     20 O1           2.0430    -0.4090     7.0940 o          1 0WW      -0.579500
     21 C14         -0.9840    -1.1900    -1.3260 c3         1 0WW      -0.092700
     22 C15         -1.7260    -2.4380    -0.8560 c3         1 0WW      -0.076900
     23 C16         -2.7050    -2.9100    -1.9120 c3         1 0WW      -0.078400
     24 C17         -3.6800    -1.8150    -2.2890 c3         1 0WW      -0.083400
     25 C18         -2.9540    -0.5650    -2.7380 c3         1 0WW      -0.078400
     26 C19         -1.9700    -0.0880    -1.6870 c3         1 0WW      -0.076900
     27 S1           3.6490     9.3460     3.3020 ss         1 0WW       0.052200
     28 C20          4.9180    10.4240     3.3460 cc         1 0WW      -0.149100
     29 C21          6.0980     9.8470     2.9220 cd         1 0WW      -0.156000
     30 C22          5.9080     8.4810     2.5540 cd         1 0WW      -0.123000
     31 C23          4.5920     8.0860     2.7190 cc         1 0WW      -0.190400
     32 H1           0.5770    -1.6350     0.1420 hx         1 0WW       0.114200
     33 H2          -0.6310    -0.3740     0.6820 hx         1 0WW       0.114200
     34 H3           1.4980    -0.0350    -1.3780 hn         1 0WW       0.445300
     35 H5           2.6970     1.2510     0.0440 hx         1 0WW       0.109200
     36 H6           2.0830    -0.1090     1.1040 hx         1 0WW       0.109200
     37 H7           1.1780     2.8380     0.9430 hc         1 0WW       0.065200
     38 H8          -0.0140     1.6060     1.5020 hc         1 0WW       0.065200
     39 H9          -0.4930    -2.0000     3.8640 h5         1 0WW       0.052800
     40 H10          0.4050    -2.0090     6.0780 hn         1 0WW       0.352500
     41 H11          3.2900     1.7110     6.4240 ha         1 0WW       0.192000
     42 H12          2.8480     4.2630     1.6670 hn         1 0WW       0.303700
     43 H14          5.3240     6.0020     3.8770 hn         1 0WW       0.444800
     44 H15          4.2120     6.5290     1.3060 h1         1 0WW       0.049200
     45 H16          2.9420     6.7340     2.6020 h1         1 0WW       0.049200
     46 H17         -0.3870    -1.4610    -2.2420 hc         1 0WW       0.065700
     47 H18         -0.9880    -3.2530    -0.6370 hc         1 0WW       0.044950
     48 H19         -2.2780    -2.2080     0.0930 hc         1 0WW       0.044950
     49 H20         -3.2670    -3.7970    -1.5180 hc         1 0WW       0.057450
     50 H21         -2.1430    -3.2450    -2.8230 hc         1 0WW       0.057450
     51 H22         -4.3470    -2.1760    -3.1150 hc         1 0WW       0.058700
     52 H23         -4.3350    -1.5750    -1.4100 hc         1 0WW       0.058700
     53 H24         -2.4070    -0.7720    -3.6960 hc         1 0WW       0.057450
     54 H25         -3.6970     0.2500    -2.9420 hc         1 0WW       0.057450
     55 H26         -1.4270     0.8090    -2.0850 hc         1 0WW       0.044950
     56 H27         -2.5300     0.2300    -0.7680 hc         1 0WW       0.044950
     57 H30          6.7130     7.8400     2.1870 ha         1 0WW       0.161000
     58 H28          4.8050    11.4570     3.6750 h4         1 0WW       0.183000
     59 H121         0.3620     1.1120    -0.9870 hn         1 0WW       0.445300
     60 H29          7.0640    10.3540     2.8670 ha         1 0WW       0.166000
@<TRIPOS>BOND
     1     1     2 1   
     2     1    21 1   
     3     1    32 1   
     4     1    33 1   
     5     2     3 1   
     6     2    34 1   
     7     2    59 1   
     8     3     4 1   
     9     3    35 1   
    10     3    36 1   
    11     4     5 1   
    12     4    37 1   
    13     4    38 1   
    14     5     6 ar  
    15     5    14 ar  
    16     6     7 1   
    17     6    11 ar  
    18     7     8 2   
    19     8     9 1   
    20     8    39 1   
    21     9    10 1   
    22     9    40 1   
    23    10    11 1   
    24    10    20 2   
    25    11    12 ar  
    26    12    13 ar  
    27    12    41 1   
    28    13    14 ar  
    29    13    17 1   
    30    14    15 1   
    31    15    16 1   
    32    15    42 1   
    33    16    17 2   
    34    16    18 1   
    35    18    19 1   
    36    18    43 1   
    37    19    31 1   
    38    19    44 1   
    39    19    45 1   
    40    21    22 1   
    41    21    26 1   
    42    21    46 1   
    43    22    23 1   
    44    22    47 1   
    45    22    48 1   
    46    23    24 1   
    47    23    49 1   
    48    23    50 1   
    49    24    25 1   
    50    24    51 1   
    51    24    52 1   
    52    25    26 1   
    53    25    53 1   
    54    25    54 1   
    55    26    55 1   
    56    26    56 1   
    57    27    28 1   
    58    27    31 1   
    59    28    29 2   
    60    28    58 1   
    61    29    30 1   
    62    29    60 1   
    63    30    31 2   
    64    30    57 1   
@<TRIPOS>SUBSTRUCTURE
     1 0WW         1 TEMP              0 ****  ****    0 ROOT
