@<TRIPOS>MOLECULE
0WW
   59    63     1     0     0
SMALL
bcc


@<TRIPOS>ATOM
      1 C1           0.0000     0.0000     0.0000 c3         1 0WW       0.144800
      2 N1           1.4690     0.0000     0.0000 n7         1 0WW      -0.594200
      3 C2           1.9960     0.0000     1.3710 c3         1 0WW       0.145800
      4 C3           3.5250    -0.0000     1.3290 c3         1 0WW       0.032900
      5 C4           4.0670    -0.0010     2.7360 ca         1 0WW      -0.058300
      6 C5           4.3170    -1.2050     3.3880 ca         1 0WW       0.128400
      7 N2           4.0840    -2.3990     2.7820 nc         1 0WW      -0.536100
      8 C6           4.3160    -3.5240     3.3840 cd         1 0WW       0.317800
      9 N3           4.8030    -3.6090     4.6500 ns         1 0WW      -0.028400
     10 C7           5.0760    -2.4900     5.3610 c          1 0WW       0.622100
     11 C8           4.8260    -1.1960     4.7100 ca         1 0WW      -0.212600
     12 C9           5.0750     0.0060     5.3600 ca         1 0WW       0.025000
     13 C10          4.8210     1.2060     4.7010 ca         1 0WW       0.089400
     14 C11          4.3210     1.1940     3.3830 ca         1 0WW      -0.237200
     15 N4           4.1770     2.5220     3.0170 na         1 0WW       0.210700
     16 C12          4.5770     3.2830     4.0790 cc         1 0WW       0.346700
     17 N5           4.9590     2.5100     5.0640 nd         1 0WW      -0.595100
     18 N6           4.5820     4.6610     4.1070 nu         1 0WW      -0.472200
     19 C13          4.1360     5.4190     2.9350 c3         1 0WW       0.266100
     20 O1           5.5120    -2.5530     6.4960 o          1 0WW      -0.662500
     21 C14         -0.5110     0.0000    -1.4420 c3         1 0WW      -0.050700
     22 C15         -2.0360    -0.1250    -1.4430 c3         1 0WW      -0.022400
     23 C16         -2.5460    -0.1240    -2.8850 c3         1 0WW      -0.023900
     24 C17         -2.1420     1.1830    -3.5690 c3         1 0WW      -0.025400
     25 C18         -0.6170     1.3080    -3.5680 c3         1 0WW      -0.023900
     26 C19         -0.1060     1.3080    -2.1260 c3         1 0WW      -0.022400
     27 S1           2.9660     7.8830     3.9250 ss         1 0WW      -0.256800
     28 C20          3.9910     9.3100     3.8520 cc         1 0WW       0.023900
     29 C21          5.1750     8.9840     3.3300 cd         1 0WW      -0.132000
     30 C22          5.3120     7.6510     2.9830 cd         1 0WW      -0.097000
     31 C23          4.2400     6.8950     3.2220 cc         1 0WW      -0.029400
     32 H1          -0.3610    -0.8850     0.5110 h1         1 0WW       0.008700
     33 H2          -0.3610     0.8840     0.5110 h1         1 0WW       0.008700
     34 H3           1.8020    -0.8090    -0.4860 hn         1 0WW       0.257800
     35 H5           1.6490     0.8850     1.8910 h1         1 0WW       0.009700
     36 H6           1.6480    -0.8840     1.8910 h1         1 0WW       0.009700
     37 H7           3.8720    -0.8850     0.8080 hc         1 0WW       0.026200
     38 H8           3.8720     0.8840     0.8090 hc         1 0WW       0.026200
     39 H9           4.1110    -4.4440     2.8500 h5         1 0WW      -0.000200
     40 H10          4.9620    -4.5070     5.0620 hn         1 0WW       0.180500
     41 H11          5.5860     0.0100     6.3150 ha         1 0WW       0.132000
     42 H12          3.8390     2.8610     2.1380 hn         1 0WW       0.137700
     43 H14          4.8710     5.1430     4.9350 hn         1 0WW       0.322800
     44 H15          4.7610     5.1710     2.0860 h1         1 0WW       0.015200
     45 H16          3.1060     5.1660     2.7130 h1         1 0WW       0.015200
     46 H17         -0.0820    -0.8350    -1.9820 hc         1 0WW       0.028700
     47 H18         -2.3210    -1.0530    -0.9610 hc         1 0WW       0.017950
     48 H19         -2.4670     0.7130    -0.9090 hc         1 0WW       0.017950
     49 H20         -2.1110    -0.9590    -3.4210 hc         1 0WW       0.012700
     50 H21         -3.6260    -0.2120    -2.8850 hc         1 0WW       0.012700
     51 H22         -2.5720     2.0180    -3.0300 hc         1 0WW       0.012200
     52 H23         -2.5020     1.1810    -4.5900 hc         1 0WW       0.012200
     53 H24         -0.1870     0.4700    -4.1020 hc         1 0WW       0.012700
     54 H25         -0.3320     2.2360    -4.0500 hc         1 0WW       0.012700
     55 H26         -0.5400     2.1440    -1.5900 hc         1 0WW       0.017950
     56 H27          0.9740     1.3950    -2.1260 hc         1 0WW       0.017950
     57 H29          5.9690     9.7080     3.1890 ha         1 0WW       0.124000
     58 H30          6.2220     7.2530     2.5490 ha         1 0WW       0.124000
     59 H28          3.7050    10.3020     4.1800 h4         1 0WW       0.151000
@<TRIPOS>BOND
     1     1     2 1   
     2     1    21 1   
     3     1    32 1   
     4     1    33 1   
     5     2     3 1   
     6     2    34 1   
     7     3     4 1   
     8     3    35 1   
     9     3    36 1   
    10     4     5 1   
    11     4    37 1   
    12     4    38 1   
    13     5     6 ar  
    14     5    14 ar  
    15     6     7 1   
    16     6    11 ar  
    17     7     8 2   
    18     8     9 1   
    19     8    39 1   
    20     9    10 1   
    21     9    40 1   
    22    10    11 1   
    23    10    20 2   
    24    11    12 ar  
    25    12    13 ar  
    26    12    41 1   
    27    13    14 ar  
    28    13    17 1   
    29    14    15 1   
    30    15    16 1   
    31    15    42 1   
    32    16    17 2   
    33    16    18 1   
    34    18    19 1   
    35    18    43 1   
    36    19    31 1   
    37    19    44 1   
    38    19    45 1   
    39    21    22 1   
    40    21    26 1   
    41    21    46 1   
    42    22    23 1   
    43    22    47 1   
    44    22    48 1   
    45    23    24 1   
    46    23    49 1   
    47    23    50 1   
    48    24    25 1   
    49    24    51 1   
    50    24    52 1   
    51    25    26 1   
    52    25    53 1   
    53    25    54 1   
    54    26    55 1   
    55    26    56 1   
    56    27    28 1   
    57    27    31 1   
    58    28    29 2   
    59    28    59 1   
    60    29    30 1   
    61    29    57 1   
    62    30    31 2   
    63    30    58 1   
@<TRIPOS>SUBSTRUCTURE
     1 0WW         1 TEMP              0 ****  ****    0 ROOT
