@<TRIPOS>MOLECULE
0WX
   68    72     1     0     0
SMALL
bcc


@<TRIPOS>ATOM
      1 C2           0.0000     0.0000     0.0000 c          1 0WX       0.622100
      2 O14         -0.6330     0.0010    -1.0400 o          1 0WX      -0.662500
      3 N3           1.3530     0.0000     0.0000 ns         1 0WX      -0.028400
      4 C4           2.0470     0.0000     1.1700 cc         1 0WX       0.318800
      5 N5           1.4790    -0.0010     2.3370 nd         1 0WX      -0.535100
      6 C6           0.1270    -0.0000     2.4710 ca         1 0WX       0.129400
      7 C10         -0.4750     0.0050     3.7260 ca         1 0WX      -0.058300
      8 C18          0.3720    -0.0010     4.9720 c3         1 0WX       0.033900
      9 C19          0.6720     1.4390     5.3930 c3         1 0WX       0.145800
     10 N20          1.4980     1.4320     6.6080 n7         1 0WX      -0.594200
     11 C21          1.8060     2.8020     7.0430 c3         1 0WX       0.144800
     12 C22          2.6660     2.7540     8.3080 c3         1 0WX      -0.050700
     13 C27          3.0900     4.1740     8.6890 c3         1 0WX      -0.022400
     14 C26          3.9500     4.1270     9.9530 c3         1 0WX      -0.023900
     15 C25          3.1410     3.5110    11.0980 c3         1 0WX      -0.025400
     16 C24          2.7170     2.0910    10.7160 c3         1 0WX      -0.023900
     17 C23          1.8570     2.1380     9.4500 c3         1 0WX      -0.022400
     18 C9          -1.8550     0.0170     3.8250 ca         1 0WX      -0.237200
     19 N11         -2.7300     0.0260     4.8970 na         1 0WX       0.211700
     20 C12         -3.9980     0.0370     4.3870 cc         1 0WX       0.347700
     21 N16         -5.1530     0.0480     5.1400 nu         1 0WX      -0.467200
     22 C17         -5.0740     0.0490     6.6020 c3         1 0WX       0.139800
     23 N13         -3.9540     0.0350     3.0790 nd         1 0WX      -0.597100
     24 C8          -2.6570     0.0240     2.6650 ca         1 0WX       0.088400
     25 C7          -2.0630     0.0180     1.4070 ca         1 0WX       0.025000
     26 C1          -0.6770     0.0060     1.3060 ca         1 0WX      -0.211600
     27 H1           1.8480     0.0000    -0.8700 hn         1 0WX       0.180500
     28 H2           3.1290     0.0000     1.1250 h5         1 0WX      -0.000200
     29 H3           1.3020    -0.5210     4.7750 hc         1 0WX       0.025700
     30 H4          -0.1610    -0.5070     5.7690 hc         1 0WX       0.025700
     31 H5           1.2040     1.9440     4.5970 h1         1 0WX       0.010200
     32 H6           0.8830     3.3300     7.2530 h1         1 0WX       0.008200
     33 H7           2.3460     3.3180     6.2580 h1         1 0WX       0.008200
     34 H8           3.5480     2.1520     8.1270 hc         1 0WX       0.029700
     35 H9           3.6640     4.6070     7.8790 hc         1 0WX       0.017950
     36 H10          2.2080     4.7750     8.8760 hc         1 0WX       0.017950
     37 H11          4.2470     5.1330    10.2240 hc         1 0WX       0.012700
     38 H12          4.8290     3.5220     9.7680 hc         1 0WX       0.012700
     39 H13          3.7520     3.4760    11.9920 hc         1 0WX       0.012200
     40 H14          2.2590     4.1130    11.2800 hc         1 0WX       0.012200
     41 H15          2.1440     1.6570    11.5250 hc         1 0WX       0.012700
     42 H16          3.5990     1.4900    10.5290 hc         1 0WX       0.012700
     43 H17          0.9770     2.7430     9.6360 hc         1 0WX       0.017950
     44 H18          1.5590     1.1320     9.1800 hc         1 0WX       0.017950
     45 H19         -2.4840    -0.1070     5.8580 hn         1 0WX       0.137700
     46 H20         -6.0450     0.0310     4.6870 hn         1 0WX       0.315800
     47 H21         -4.5520    -0.8410     6.9360 h1         1 0WX       0.020700
     48 H22         -4.5360     0.9290     6.9350 h1         1 0WX       0.020700
     49 H25         -2.6720    -0.1160     0.5210 ha         1 0WX       0.133000
     50 C3          -6.4870     0.0620     7.1890 c3         1 0WX       0.152800
     51 N1          -6.4090     0.0630     8.6560 n3         1 0WX      -0.534600
     52 C11         -7.7270     0.3130     9.2540 c3         1 0WX       0.104800
     53 C13         -7.6100     0.2470    10.7790 c3         1 0WX       0.215400
     54 O1          -6.6290     1.1880    11.2190 os         1 0WX      -0.409600
     55 C15         -5.3320     0.9740    10.6560 c3         1 0WX       0.215400
     56 C16         -5.4250     1.0480     9.1300 c3         1 0WX       0.104800
     57 H26         -0.2580     1.9580     5.5920 h1         1 0WX       0.010200
     58 H27          2.3510     0.9400     6.4290 hn         1 0WX       0.257800
     59 H23         -7.0080     0.9510     6.8550 h1         1 0WX       0.017700
     60 H24         -7.0240    -0.8180     6.8570 h1         1 0WX       0.017700
     61 H28         -8.4270    -0.4400     8.9130 h1         1 0WX       0.020200
     62 H29         -8.0750     1.2970     8.9610 h1         1 0WX       0.020200
     63 H30         -7.3110    -0.7510    11.0750 h1         1 0WX       0.014450
     64 H31         -8.5680     0.4900    11.2250 h1         1 0WX       0.014450
     65 H32         -4.9700    -0.0050    10.9480 h1         1 0WX       0.014450
     66 H33         -4.6530     1.7380    11.0140 h1         1 0WX       0.014450
     67 H34         -4.4560     0.8260     8.6990 h1         1 0WX       0.020200
     68 H35         -5.7390     2.0420     8.8360 h1         1 0WX       0.020200
@<TRIPOS>BOND
     1     1     2 2   
     2     1     3 1   
     3     1    26 1   
     4     3     4 1   
     5     3    27 1   
     6     4     5 2   
     7     4    28 1   
     8     5     6 1   
     9     6     7 ar  
    10     6    26 ar  
    11     7     8 1   
    12     7    18 ar  
    13     8     9 1   
    14     8    29 1   
    15     8    30 1   
    16     9    10 1   
    17     9    31 1   
    18     9    57 1   
    19    10    11 1   
    20    10    58 1   
    21    11    12 1   
    22    11    32 1   
    23    11    33 1   
    24    12    13 1   
    25    12    17 1   
    26    12    34 1   
    27    13    14 1   
    28    13    35 1   
    29    13    36 1   
    30    14    15 1   
    31    14    37 1   
    32    14    38 1   
    33    15    16 1   
    34    15    39 1   
    35    15    40 1   
    36    16    17 1   
    37    16    41 1   
    38    16    42 1   
    39    17    43 1   
    40    17    44 1   
    41    18    19 1   
    42    18    24 ar  
    43    19    20 1   
    44    19    45 1   
    45    20    21 1   
    46    20    23 2   
    47    21    22 1   
    48    21    46 1   
    49    22    47 1   
    50    22    48 1   
    51    22    50 1   
    52    23    24 1   
    53    24    25 ar  
    54    25    26 ar  
    55    25    49 1   
    56    50    51 1   
    57    50    59 1   
    58    50    60 1   
    59    51    52 1   
    60    51    56 1   
    61    52    53 1   
    62    52    61 1   
    63    52    62 1   
    64    53    54 1   
    65    53    63 1   
    66    53    64 1   
    67    54    55 1   
    68    55    56 1   
    69    55    65 1   
    70    55    66 1   
    71    56    67 1   
    72    56    68 1   
@<TRIPOS>SUBSTRUCTURE
     1 0WX         1 TEMP              0 ****  ****    0 ROOT
