@<TRIPOS>MOLECULE
0WY
   68    72     1     0     0
SMALL
bcc


@<TRIPOS>ATOM
      1 C1           0.0000     0.0000     0.0000 c3         1 0WY       0.144800
      2 N1          -0.4890     1.2550     0.5850 n7         1 0WY      -0.583200
      3 C2          -1.9580     1.2910     0.6020 c3         1 0WY       0.150800
      4 C3          -2.4290     2.6110     1.2170 c3         1 0WY       0.012900
      5 C4          -3.9350     2.6480     1.2340 ca         1 0WY       0.042700
      6 C5          -4.6340     3.1690     0.1470 ca         1 0WY       0.018400
      7 N2          -3.9840     3.6520    -0.9420 nc         1 0WY      -0.349100
      8 C6          -4.6330     4.1430    -1.9650 cd         1 0WY      -0.051200
      9 N3          -5.9960     4.2090    -2.0210 ns         1 0WY      -0.028400
     10 C7          -6.7510     3.7580    -0.9930 c          1 0WY       0.631100
     11 C8          -6.0500     3.1990     0.1720 ca         1 0WY      -0.161600
     12 C9          -6.7450     2.7110     1.2730 ca         1 0WY       0.019000
     13 C10         -6.0400     2.1910     2.3530 ca         1 0WY       0.161400
     14 C11         -4.6290     2.1580     2.3250 ca         1 0WY      -0.276200
     15 N4          -4.2350     1.5880     3.5240 na         1 0WY       0.224700
     16 C12         -5.3700     1.2930     4.2260 cc         1 0WY       0.383700
     17 N5          -6.4270     1.6530     3.5420 nd         1 0WY      -0.592100
     18 N6          -5.3980     0.7120     5.4760 nu         1 0WY      -0.428200
     19 C13         -4.1430     0.3600     6.1480 c3         1 0WY       0.146800
     20 O1          -7.9670     3.8120    -1.0300 o          1 0WY      -0.595500
     21 C14          1.5310     0.0000     0.0000 c3         1 0WY      -0.050700
     22 C15          2.0400     0.0000     1.4420 c3         1 0WY      -0.021900
     23 C16          3.5700    -0.0010     1.4420 c3         1 0WY      -0.022900
     24 C17          4.0800    -1.2500     0.7210 c3         1 0WY      -0.025400
     25 C18          3.5700    -1.2490    -0.7210 c3         1 0WY      -0.022900
     26 C19          2.0400    -1.2500    -0.7220 c3         1 0WY      -0.021900
     27 N7          -3.9120     4.6160    -3.0330 nz         1 0WY       0.227400
     28 C20         -4.4530    -0.2650     7.5100 c3         1 0WY       0.033900
     29 C21         -3.1640    -0.6260     8.2010 ca         1 0WY      -0.112300
     30 C22         -1.4180    -2.2040     8.6420 ca         1 0WY      -0.092500
     31 C23         -2.6010    -1.8740     8.0080 ca         1 0WY      -0.095000
     32 C24         -0.7980    -1.2870     9.4700 ca         1 0WY      -0.088000
     33 C25         -2.5400     0.2930     9.0250 ca         1 0WY      -0.095000
     34 C26         -1.3570    -0.0380     9.6590 ca         1 0WY      -0.092500
     35 H1          -0.3610    -0.8360     0.5860 h1         1 0WY       0.009200
     36 H2          -0.3610    -0.0890    -1.0170 h1         1 0WY       0.009200
     37 H3          -0.1420     2.0290     0.0530 hn         1 0WY       0.251800
     38 H5          -2.3330     0.4640     1.1920 h1         1 0WY       0.006700
     39 H6          -2.3330     1.2110    -0.4110 h1         1 0WY       0.006700
     40 H7          -2.0540     3.4380     0.6270 hc         1 0WY       0.031700
     41 H8          -2.0540     2.6910     2.2300 hc         1 0WY       0.031700
     42 H9          -6.4410     4.5960    -2.8300 hn         1 0WY       0.182500
     43 H10         -7.8170     2.8550     1.3450 ha         1 0WY       0.149000
     44 H11         -3.2940     1.4170     3.8180 hn         1 0WY       0.150700
     45 H13         -6.2730     0.5520     5.9340 hn         1 0WY       0.326800
     46 H14         -3.5940    -0.3490     5.5410 h1         1 0WY       0.018700
     47 H15         -3.5460     1.2530     6.2890 h1         1 0WY       0.018700
     48 H16          1.8970     0.8830    -0.5100 hc         1 0WY       0.026700
     49 H17          1.6810     0.8860     1.9510 hc         1 0WY       0.017450
     50 H18          1.6800    -0.8860     1.9510 hc         1 0WY       0.017450
     51 H19          3.9300     0.8830     0.9300 hc         1 0WY       0.015200
     52 H20          3.9290    -0.0030     2.4640 hc         1 0WY       0.015200
     53 H21          5.1630    -1.2480     0.7200 hc         1 0WY       0.017700
     54 H22          3.7160    -2.1340     1.2310 hc         1 0WY       0.017700
     55 H23          3.9300    -2.1350    -1.2300 hc         1 0WY       0.015200
     56 H24          3.9300    -0.3630    -1.2300 hc         1 0WY       0.015200
     57 H25          1.6800    -1.2470    -1.7440 hc         1 0WY       0.017450
     58 H26          1.6800    -2.1330    -0.2090 hc         1 0WY       0.017450
     59 H27         -3.8870     3.9200    -3.7530 hn         1 0WY       0.209800
     60 H28         -4.3440     5.4460    -3.3870 hn         1 0WY       0.209800
     61 H29         -5.0490    -1.1580     7.3690 hc         1 0WY       0.029700
     62 H30         -5.0020     0.4440     8.1170 hc         1 0WY       0.029700
     63 H31         -0.9780    -3.1830     8.4930 ha         1 0WY       0.109000
     64 H32         -3.0860    -2.5930     7.3590 ha         1 0WY       0.105000
     65 H33          0.1290    -1.5460     9.9670 ha         1 0WY       0.109000
     66 H34         -2.9780     1.2730     9.1720 ha         1 0WY       0.105000
     67 H35         -0.8700     0.6810    10.3060 ha         1 0WY       0.109000
     68 H73         -2.9810     4.8340    -2.7370 hn         1 0WY       0.209800
@<TRIPOS>BOND
     1     1     2 1   
     2     1    21 1   
     3     1    35 1   
     4     1    36 1   
     5     2     3 1   
     6     2    37 1   
     7     3     4 1   
     8     3    38 1   
     9     3    39 1   
    10     4     5 1   
    11     4    40 1   
    12     4    41 1   
    13     5     6 ar  
    14     5    14 ar  
    15     6     7 1   
    16     6    11 ar  
    17     7     8 2   
    18     8     9 1   
    19     8    27 1   
    20     9    10 1   
    21     9    42 1   
    22    10    11 1   
    23    10    20 2   
    24    11    12 ar  
    25    12    13 ar  
    26    12    43 1   
    27    13    14 ar  
    28    13    17 1   
    29    14    15 1   
    30    15    16 1   
    31    15    44 1   
    32    16    17 2   
    33    16    18 1   
    34    18    19 1   
    35    18    45 1   
    36    19    28 1   
    37    19    46 1   
    38    19    47 1   
    39    21    22 1   
    40    21    26 1   
    41    21    48 1   
    42    22    23 1   
    43    22    49 1   
    44    22    50 1   
    45    23    24 1   
    46    23    51 1   
    47    23    52 1   
    48    24    25 1   
    49    24    53 1   
    50    24    54 1   
    51    25    26 1   
    52    25    55 1   
    53    25    56 1   
    54    26    57 1   
    55    26    58 1   
    56    27    59 1   
    57    27    60 1   
    58    27    68 1   
    59    28    29 1   
    60    28    61 1   
    61    28    62 1   
    62    29    31 ar  
    63    29    33 ar  
    64    30    31 ar  
    65    30    32 ar  
    66    30    63 1   
    67    31    64 1   
    68    32    34 ar  
    69    32    65 1   
    70    33    34 ar  
    71    33    66 1   
    72    34    67 1   
@<TRIPOS>SUBSTRUCTURE
     1 0WY         1 TEMP              0 ****  ****    0 ROOT
