@<TRIPOS>MOLECULE
0WY
   69    73     1     0     0
SMALL
bcc


@<TRIPOS>ATOM
      1 C1           0.0720    -0.1000    -0.0460 c3         1 0WY       0.100800
      2 N1          -0.4140    -0.1310    -1.4590 ny         1 0WY      -0.762000
      3 C2          -1.8990    -0.2270    -1.5740 c3         1 0WY       0.098800
      4 C3          -2.4690    -1.6020    -1.2080 c3         1 0WY      -0.038100
      5 C4          -3.8500    -1.7140    -1.7560 ca         1 0WY      -0.043300
      6 C5          -5.0210    -1.5390    -0.9670 ca         1 0WY       0.118400
      7 N2          -4.9060    -1.3420     0.4150 nc         1 0WY      -0.581100
      8 C6          -6.0190    -1.2360     1.1210 cd         1 0WY       0.519800
      9 N3          -7.3260    -1.2480     0.6330 ns         1 0WY      -0.505400
     10 C7          -7.5250    -1.4150    -0.7670 c          1 0WY       0.719100
     11 C8          -6.3090    -1.5910    -1.5890 ca         1 0WY      -0.135600
     12 C9          -6.4880    -1.8120    -2.9510 ca         1 0WY      -0.030000
     13 C10         -5.3510    -2.0280    -3.7370 ca         1 0WY       0.176400
     14 C11         -4.0330    -1.9960    -3.1070 ca         1 0WY      -0.111200
     15 N4          -3.0840    -2.2010    -4.1400 na         1 0WY      -0.293300
     16 C12         -3.8930    -2.4490    -5.3330 cc         1 0WY       0.685700
     17 N5          -5.2480    -2.2940    -5.0980 nd         1 0WY      -0.607100
     18 N6          -3.3400    -2.7540    -6.5410 nu         1 0WY      -0.797200
     19 C13         -1.9180    -2.8990    -6.7350 c3         1 0WY       0.209800
     20 O1          -8.6890    -1.4030    -1.1710 o          1 0WY      -0.512500
     21 C14          1.5960     0.0220     0.0560 c3         1 0WY      -0.093700
     22 C15          1.9490     0.2540     1.5230 c3         1 0WY      -0.076900
     23 C16          3.4500     0.3610     1.7000 c3         1 0WY      -0.078900
     24 C17          4.1590    -0.8640     1.1620 c3         1 0WY      -0.085400
     25 C18          3.7970    -1.1150    -0.2860 c3         1 0WY      -0.078900
     26 C19          2.2950    -1.2210    -0.4730 c3         1 0WY      -0.076900
     27 N7          -5.8620    -1.0860     2.6090 nz         1 0WY      -0.800600
     28 C20         -1.5480    -3.2270    -8.1860 c3         1 0WY      -0.043100
     29 C21         -0.0730    -3.3860    -8.2960 ca         1 0WY      -0.113300
     30 C22          2.0940    -2.5100    -8.9290 ca         1 0WY      -0.124000
     31 C23          0.7160    -2.3440    -8.7970 ca         1 0WY      -0.125000
     32 C24          2.6920    -3.7150    -8.5630 ca         1 0WY      -0.113000
     33 C25          0.5320    -4.5950    -7.9320 ca         1 0WY      -0.125000
     34 C26          1.9100    -4.7580    -8.0650 ca         1 0WY      -0.124000
     35 H1          -0.2720    -1.0490     0.4550 hx         1 0WY       0.099200
     36 H2          -0.4130     0.7810     0.4640 hx         1 0WY       0.099200
     37 H3          -0.1010     0.7270    -1.9320 hn         1 0WY       0.456300
     38 H5          -2.1660     0.0180    -2.6450 hx         1 0WY       0.114200
     39 H6          -2.3510     0.5600    -0.9050 hx         1 0WY       0.114200
     40 H7          -2.4500    -1.7380    -0.0950 hc         1 0WY       0.074200
     41 H8          -1.8320    -2.4220    -1.6430 hc         1 0WY       0.074200
     42 H9          -8.1290    -1.1570     1.2190 hn         1 0WY       0.359500
     43 H10         -7.5010    -1.8260    -3.3950 ha         1 0WY       0.209000
     44 H11         -2.2910    -2.7760    -3.9710 hn         1 0WY       0.282700
     45 H13         -3.9460    -2.8000    -7.3350 hn         1 0WY       0.489800
     46 H14         -1.5390    -3.7300    -6.0700 h1         1 0WY       0.047200
     47 H15         -1.3990    -1.9430    -6.4340 h1         1 0WY       0.047200
     48 H16          1.9450     0.9180    -0.5330 hc         1 0WY       0.075700
     49 H17          1.4600     1.1960     1.8840 hc         1 0WY       0.042200
     50 H18          1.5580    -0.5980     2.1390 hc         1 0WY       0.042200
     51 H19          3.8270     1.2780     1.1750 hc         1 0WY       0.063700
     52 H20          3.6810     0.4810     2.7920 hc         1 0WY       0.063700
     53 H21          5.2680    -0.7210     1.2490 hc         1 0WY       0.064200
     54 H22          3.8870    -1.7600     1.7800 hc         1 0WY       0.064200
     55 H23          4.1960    -0.2820    -0.9240 hc         1 0WY       0.063700
     56 H24          4.2780    -2.0670    -0.6350 hc         1 0WY       0.063700
     57 H25          2.0780    -1.3590    -1.5650 hc         1 0WY       0.042200
     58 H26          1.9160    -2.1260     0.0710 hc         1 0WY       0.042200
     59 H27         -4.8640    -1.0880     2.8600 hn         1 0WY       0.482133
     60 H28         -6.3270    -1.8730     3.0790 hn         1 0WY       0.482133
     61 H29         -1.9010    -2.4060    -8.8670 hc         1 0WY       0.072200
     62 H30         -2.0560    -4.1760    -8.5080 hc         1 0WY       0.072200
     63 H31          2.7070    -1.6920    -9.3380 ha         1 0WY       0.145500
     64 H32          0.2460    -1.3980    -9.1070 ha         1 0WY       0.133000
     65 H33          3.7790    -3.8490    -8.6800 ha         1 0WY       0.148000
     66 H34         -0.0850    -5.4270    -7.5600 ha         1 0WY       0.133000
     67 H35          2.3780    -5.7150    -7.7910 ha         1 0WY       0.145500
     68 H73         -6.2850    -0.2010     2.9130 hn         1 0WY       0.482133
     69 H12          0.0220    -0.9290    -1.9370 hn         1 0WY       0.456300
@<TRIPOS>BOND
     1     1     2 1   
     2     1    21 1   
     3     1    35 1   
     4     1    36 1   
     5     2     3 1   
     6     2    37 1   
     7     2    69 1   
     8     3     4 1   
     9     3    38 1   
    10     3    39 1   
    11     4     5 1   
    12     4    40 1   
    13     4    41 1   
    14     5     6 ar  
    15     5    14 ar  
    16     6     7 1   
    17     6    11 ar  
    18     7     8 2   
    19     8     9 1   
    20     8    27 1   
    21     9    10 1   
    22     9    42 1   
    23    10    11 1   
    24    10    20 2   
    25    11    12 ar  
    26    12    13 ar  
    27    12    43 1   
    28    13    14 ar  
    29    13    17 1   
    30    14    15 1   
    31    15    16 1   
    32    15    44 1   
    33    16    17 2   
    34    16    18 1   
    35    18    19 1   
    36    18    45 1   
    37    19    28 1   
    38    19    46 1   
    39    19    47 1   
    40    21    22 1   
    41    21    26 1   
    42    21    48 1   
    43    22    23 1   
    44    22    49 1   
    45    22    50 1   
    46    23    24 1   
    47    23    51 1   
    48    23    52 1   
    49    24    25 1   
    50    24    53 1   
    51    24    54 1   
    52    25    26 1   
    53    25    55 1   
    54    25    56 1   
    55    26    57 1   
    56    26    58 1   
    57    27    59 1   
    58    27    60 1   
    59    27    68 1   
    60    28    29 1   
    61    28    61 1   
    62    28    62 1   
    63    29    31 ar  
    64    29    33 ar  
    65    30    31 ar  
    66    30    32 ar  
    67    30    63 1   
    68    31    64 1   
    69    32    34 ar  
    70    32    65 1   
    71    33    34 ar  
    72    33    66 1   
    73    34    67 1   
@<TRIPOS>SUBSTRUCTURE
     1 0WY         1 TEMP              0 ****  ****    0 ROOT
