@<TRIPOS>MOLECULE
0X0
   67    68     1     0     0
SMALL
bcc


@<TRIPOS>ATOM
      1 O4           1.5190    -0.6640    -3.3050 o          1 0X0      -0.666800
      2 S            0.8750    -0.3850    -2.0650 sy         1 0X0       1.521200
      3 O3          -0.5290    -0.3700    -2.1330 o          1 0X0      -0.666800
      4 C17          1.4400    -1.3050    -0.8410 ca         1 0X0      -0.449500
      5 C23          0.6730    -1.4840     0.3270 ca         1 0X0       0.012000
      6 C22          1.1030    -2.3190     1.3470 ca         1 0X0      -0.160000
      7 C20          2.3190    -3.0110     1.2320 ca         1 0X0       0.037700
      8 C21          2.7680    -3.9190     2.3090 c3         1 0X0      -0.083800
      9 C19          3.0910    -2.8430     0.0720 ca         1 0X0      -0.160000
     10 C18          2.6560    -2.0040    -0.9430 ca         1 0X0       0.012000
     11 N            1.3580     1.1910    -1.7430 nh         1 0X0      -0.678900
     12 C8           0.6060     2.2760    -2.2770 c3         1 0X0       0.155800
     13 C9           1.0550     2.8050    -3.6510 c          1 0X0       0.506100
     14 N1           1.9790     1.9430    -4.4570 ny         1 0X0      -0.676800
     15 C10          2.3420     2.4490    -5.8260 c3         1 0X0       0.128500
     16 C14          1.3360     2.0460    -6.9280 c3         1 0X0      -0.085700
     17 C16          0.3390     3.1640    -7.1610 c3         1 0X0      -0.116350
     18 C15          0.6040     0.7410    -6.6950 c3         1 0X0      -0.116350
     19 C11          3.7830     2.0300    -6.1960 c3         1 0X0      -0.085700
     20 C13          4.8000     2.6410    -5.2530 c3         1 0X0      -0.116350
     21 C12          3.9680     0.5320    -6.2800 c3         1 0X0      -0.116350
     22 O2           0.7030     3.8830    -4.1060 o          1 0X0      -0.422100
     23 C4           2.5880     1.5290    -1.1230 ca         1 0X0       0.081600
     24 C3           2.6250     2.2760     0.0660 ca         1 0X0      -0.109000
     25 C2           3.8450     2.6300     0.6380 ca         1 0X0      -0.161000
     26 C5           3.8030     1.1290    -1.7240 ca         1 0X0      -0.200000
     27 C6           5.0280     1.5000    -1.1600 ca         1 0X0       0.129100
     28 O1           6.1230     1.1260    -1.9050 os         1 0X0      -0.334900
     29 C7           7.3700     0.9840    -1.2200 c3         1 0X0       0.121700
     30 C1           5.0510     2.2630     0.0360 ca         1 0X0       0.097100
     31 O            6.2920     2.5960     0.5290 os         1 0X0      -0.323900
     32 C            6.3190     3.3290     1.7530 c3         1 0X0       0.107700
     33 H23         -0.2970    -0.9630     0.4190 ha         1 0X0       0.155000
     34 H22          0.4860    -2.4470     2.2510 ha         1 0X0       0.158500
     35 H21          2.3410    -4.9420     2.1380 hc         1 0X0       0.068033
     36 H21A         2.4210    -3.5600     3.3090 hc         1 0X0       0.068033
     37 H21B         3.8830    -4.0050     2.3270 hc         1 0X0       0.068033
     38 H19          4.0440    -3.3860    -0.0330 ha         1 0X0       0.158500
     39 H18          3.2660    -1.8880    -1.8580 ha         1 0X0       0.155000
     40 H8           0.6450     3.1760    -1.5910 h1         1 0X0       0.132700
     41 H8A         -0.4820     1.9740    -2.4000 h1         1 0X0       0.132700
     42 HN1          1.5710     0.9920    -4.5460 hn         1 0X0       0.480800
     43 H10          2.3350     3.5830    -5.7520 hx         1 0X0       0.110700
     44 H14          1.9460     1.9260    -7.8720 hc         1 0X0       0.089200
     45 H16         -0.2420     3.3840    -6.2330 hc         1 0X0       0.054950
     46 H16A         0.8610     4.0990    -7.4810 hc         1 0X0       0.054950
     47 H16B        -0.3780     2.8690    -7.9660 hc         1 0X0       0.054950
     48 H15         -0.1980     0.8510    -5.9250 hc         1 0X0       0.054950
     49 H15A         0.1060     0.4270    -7.6470 hc         1 0X0       0.054950
     50 H15B         1.2980    -0.0800    -6.3890 hc         1 0X0       0.054950
     51 H11          3.9590     2.4700    -7.2220 hc         1 0X0       0.089200
     52 H13          5.8110     2.6110    -5.7320 hc         1 0X0       0.054950
     53 H13A         4.8760     2.0750    -4.2910 hc         1 0X0       0.054950
     54 H13B         4.5550     3.7080    -5.0310 hc         1 0X0       0.054950
     55 H12          3.7440     0.0280    -5.3080 hc         1 0X0       0.054950
     56 H12A         5.0290     0.3020    -6.5480 hc         1 0X0       0.054950
     57 H12B         3.3080     0.0960    -7.0690 hc         1 0X0       0.054950
     58 H3           1.6920     2.5900     0.5600 ha         1 0X0       0.151000
     59 H2           3.8440     3.2120     1.5730 ha         1 0X0       0.160000
     60 H5           3.8220     0.4870    -2.6210 ha         1 0X0       0.151000
     61 H7           7.8120     1.9930    -1.0350 h1         1 0X0       0.058700
     62 H7A          7.2410     0.4290    -0.2620 h1         1 0X0       0.058700
     63 H7B          7.9920     0.4000    -1.9450 h1         1 0X0       0.058700
     64 H            5.8410     2.7420     2.5740 h1         1 0X0       0.057700
     65 HA           7.4150     3.4600     1.9450 h1         1 0X0       0.057700
     66 HB           5.8190     4.3200     1.6270 h1         1 0X0       0.057700
     67 H121         2.8510     1.8450    -3.9110 hn         1 0X0       0.480800
@<TRIPOS>BOND
     1     1     2 2   
     2     2     3 2   
     3     2     4 1   
     4     2    11 1   
     5     4     5 ar  
     6     4    10 ar  
     7     5     6 ar  
     8     5    33 1   
     9     6     7 ar  
    10     6    34 1   
    11     7     8 1   
    12     7     9 ar  
    13     8    35 1   
    14     8    36 1   
    15     8    37 1   
    16     9    10 ar  
    17     9    38 1   
    18    10    39 1   
    19    11    12 1   
    20    11    23 1   
    21    12    13 1   
    22    12    40 1   
    23    12    41 1   
    24    13    14 1   
    25    13    22 2   
    26    14    15 1   
    27    14    42 1   
    28    14    67 1   
    29    15    16 1   
    30    15    19 1   
    31    15    43 1   
    32    16    17 1   
    33    16    18 1   
    34    16    44 1   
    35    17    45 1   
    36    17    46 1   
    37    17    47 1   
    38    18    48 1   
    39    18    49 1   
    40    18    50 1   
    41    19    20 1   
    42    19    21 1   
    43    19    51 1   
    44    20    52 1   
    45    20    53 1   
    46    20    54 1   
    47    21    55 1   
    48    21    56 1   
    49    21    57 1   
    50    23    24 ar  
    51    23    26 ar  
    52    24    25 ar  
    53    24    58 1   
    54    25    30 ar  
    55    25    59 1   
    56    26    27 ar  
    57    26    60 1   
    58    27    28 1   
    59    27    30 ar  
    60    28    29 1   
    61    29    61 1   
    62    29    62 1   
    63    29    63 1   
    64    30    31 1   
    65    31    32 1   
    66    32    64 1   
    67    32    65 1   
    68    32    66 1   
@<TRIPOS>SUBSTRUCTURE
     1 0X0         1 TEMP              0 ****  ****    0 ROOT
