@<TRIPOS>MOLECULE
0X0
   66    67     1     0     0
SMALL
bcc


@<TRIPOS>ATOM
      1 O4           0.0000     0.0000     0.0000 o          1 0X0      -0.587800
      2 S            1.4210     0.0000     0.0000 sy         1 0X0       1.049200
      3 O3           2.1990     0.0000     1.1890 o          1 0X0      -0.587800
      4 C17          1.9180    -1.4180    -0.9200 ca         1 0X0      -0.152500
      5 C23          1.0610    -1.9720    -1.8540 ca         1 0X0       0.012000
      6 C22          1.4510    -3.0850    -2.5760 ca         1 0X0      -0.136000
      7 C20          2.6970    -3.6440    -2.3630 ca         1 0X0      -0.034300
      8 C21          3.1220    -4.8580    -3.1490 c3         1 0X0       0.056200
      9 C19          3.5540    -3.0910    -1.4310 ca         1 0X0      -0.136000
     10 C18          3.1660    -1.9750    -0.7120 ca         1 0X0       0.012000
     11 N            1.8880     1.3330    -0.8650 nh         1 0X0      -0.333900
     12 C8           3.1540     2.0020    -0.5520 c3         1 0X0       0.143800
     13 C9           4.2360     1.4780    -1.4600 c          1 0X0       0.546100
     14 N1           5.4930     1.9520    -1.3540 ns         1 0X0      -0.182900
     15 C10          6.5460     1.4440    -2.2370 c3         1 0X0       0.023700
     16 C14          7.6480     2.4970    -2.3760 c3         1 0X0      -0.072200
     17 C16          8.7140     1.9920    -3.3510 c3         1 0X0      -0.005350
     18 C15          7.0450     3.7990    -2.9080 c3         1 0X0      -0.005350
     19 C11          7.1350     0.1640    -1.6430 c3         1 0X0      -0.072200
     20 C13          7.7090     0.4620    -0.2560 c3         1 0X0      -0.005350
     21 C12          6.0380    -0.8960    -1.5240 c3         1 0X0      -0.005350
     22 O2           3.9770     0.6300    -2.2880 o          1 0X0      -0.650100
     23 C4           1.0750     1.8200    -1.8930 ca         1 0X0       0.078600
     24 C3           0.8720     1.0600    -3.0390 ca         1 0X0      -0.111000
     25 C2           0.0690     1.5400    -4.0550 ca         1 0X0      -0.164000
     26 C5           0.4650     3.0610    -1.7690 ca         1 0X0      -0.185000
     27 C6          -0.3400     3.5420    -2.7880 ca         1 0X0       0.128100
     28 O1          -0.9380     4.7570    -2.6670 os         1 0X0      -0.293900
     29 C7          -0.6920     5.4840    -1.4610 c3         1 0X0       0.242700
     30 C1          -0.5360     2.7800    -3.9360 ca         1 0X0       0.116100
     31 O           -1.3250     3.2510    -4.9380 os         1 0X0      -0.294900
     32 C           -1.4870     2.4140    -6.0850 c3         1 0X0       0.242700
     33 H23          0.0850    -1.5320    -2.0200 ha         1 0X0       0.123500
     34 H22          0.7800    -3.5190    -3.3070 ha         1 0X0       0.110000
     35 H21          3.9480    -5.3440    -2.6450 hc         1 0X0       0.010367
     36 H21A         3.4330    -4.5540    -4.1420 hc         1 0X0       0.010367
     37 H21B         2.2900    -5.5480    -3.2270 hc         1 0X0       0.010367
     38 H19          4.5310    -3.5280    -1.2660 ha         1 0X0       0.110000
     39 H18          3.8370    -1.5410     0.0190 ha         1 0X0       0.123500
     40 H8           3.4210     1.8050     0.4790 h1         1 0X0       0.046200
     41 H8A          3.0450     3.0700    -0.6990 h1         1 0X0       0.046200
     42 HN1          5.7040     2.6630    -0.6820 hn         1 0X0       0.176500
     43 H10          6.1270     1.2300    -3.2120 h1         1 0X0       0.062700
     44 H14          8.0990     2.6770    -1.4080 hc         1 0X0       0.036200
     45 H16          8.2340     1.4970    -4.1870 hc         1 0X0       0.009283
     46 H16A         9.3660     1.2920    -2.8420 hc         1 0X0       0.009283
     47 H16B         9.2970     2.8300    -3.7140 hc         1 0X0       0.009283
     48 H15          6.4750     4.2800    -2.1220 hc         1 0X0       0.009283
     49 H15A         6.3930     3.5800    -3.7440 hc         1 0X0       0.009283
     50 H15B         7.8400     4.4590    -3.2330 hc         1 0X0       0.009283
     51 H11          7.9240    -0.2040    -2.2880 hc         1 0X0       0.036200
     52 H13          8.6730     0.9460    -0.3600 hc         1 0X0       0.009283
     53 H13A         7.8270    -0.4640     0.2930 hc         1 0X0       0.009283
     54 H13B         7.0330     1.1160     0.2820 hc         1 0X0       0.009283
     55 H12          6.4860    -1.8540    -1.2900 hc         1 0X0       0.009283
     56 H12A         5.3500    -0.6170    -0.7350 hc         1 0X0       0.009283
     57 H12B         5.5020    -0.9670    -2.4630 hc         1 0X0       0.009283
     58 H3           1.3440     0.0890    -3.1350 ha         1 0X0       0.129000
     59 H2          -0.0860     0.9470    -4.9480 ha         1 0X0       0.121000
     60 H5           0.5880     3.6360    -0.8590 ha         1 0X0       0.126000
     61 H7          -1.2450     6.4160    -1.4830 h1         1 0X0      -0.003633
     62 H7A          0.3670     5.6950    -1.3760 h1         1 0X0      -0.003633
     63 H7B         -1.0130     4.8940    -0.6110 h1         1 0X0      -0.003633
     64 H           -0.5200     2.2320    -6.5380 h1         1 0X0      -0.003967
     65 HA          -2.1340     2.9050    -6.8020 h1         1 0X0      -0.003967
     66 HB          -1.9290     1.4720    -5.7850 h1         1 0X0      -0.003967
@<TRIPOS>BOND
     1     1     2 2   
     2     2     3 2   
     3     2     4 1   
     4     2    11 1   
     5     4     5 ar  
     6     4    10 ar  
     7     5     6 ar  
     8     5    33 1   
     9     6     7 ar  
    10     6    34 1   
    11     7     8 1   
    12     7     9 ar  
    13     8    35 1   
    14     8    36 1   
    15     8    37 1   
    16     9    10 ar  
    17     9    38 1   
    18    10    39 1   
    19    11    12 1   
    20    11    23 1   
    21    12    13 1   
    22    12    40 1   
    23    12    41 1   
    24    13    14 1   
    25    13    22 2   
    26    14    15 1   
    27    14    42 1   
    28    15    16 1   
    29    15    19 1   
    30    15    43 1   
    31    16    17 1   
    32    16    18 1   
    33    16    44 1   
    34    17    45 1   
    35    17    46 1   
    36    17    47 1   
    37    18    48 1   
    38    18    49 1   
    39    18    50 1   
    40    19    20 1   
    41    19    21 1   
    42    19    51 1   
    43    20    52 1   
    44    20    53 1   
    45    20    54 1   
    46    21    55 1   
    47    21    56 1   
    48    21    57 1   
    49    23    24 ar  
    50    23    26 ar  
    51    24    25 ar  
    52    24    58 1   
    53    25    30 ar  
    54    25    59 1   
    55    26    27 ar  
    56    26    60 1   
    57    27    28 1   
    58    27    30 ar  
    59    28    29 1   
    60    29    61 1   
    61    29    62 1   
    62    29    63 1   
    63    30    31 1   
    64    31    32 1   
    65    32    64 1   
    66    32    65 1   
    67    32    66 1   
@<TRIPOS>SUBSTRUCTURE
     1 0X0         1 TEMP              0 ****  ****    0 ROOT
