@<TRIPOS>MOLECULE
molecule
   66    67     1     0     0
SMALL
bcc


@<TRIPOS>ATOM
      1 O4           0.0000     0.0000     0.0000 o          1 0X0      -0.634300
      2 S            1.4210     0.0000     0.0000 sy         1 0X0       1.429200
      3 O3           2.1990     0.0000     1.1890 o          1 0X0      -0.634300
      4 C17          1.9180    -1.4180    -0.9200 ca         1 0X0      -0.308500
      5 C23          1.0610    -1.9720    -1.8540 ca         1 0X0      -0.017500
      6 C22          1.4510    -3.0850    -2.5760 ca         1 0X0      -0.152500
      7 C20          2.6970    -3.6440    -2.3630 ca         1 0X0      -0.026300
      8 C21          3.1220    -4.8580    -3.1490 c3         1 0X0      -0.056800
      9 C19          3.5540    -3.0910    -1.4310 ca         1 0X0      -0.152500
     10 C18          3.1660    -1.9750    -0.7120 ca         1 0X0      -0.017500
     11 N            1.8880     1.3330    -0.8650 nh         1 0X0      -0.660900
     12 C8           3.1540     2.0020    -0.5520 c3         1 0X0       0.156800
     13 C9           4.2360     1.4780    -1.4600 c          1 0X0       0.631100
     14 N1           5.4930     1.9520    -1.3540 ns         1 0X0      -0.576900
     15 C10          6.5460     1.4440    -2.2370 c3         1 0X0       0.124700
     16 C14          7.6480     2.4970    -2.3760 c3         1 0X0      -0.092200
     17 C16          8.7140     1.9920    -3.3510 c3         1 0X0      -0.087850
     18 C15          7.0450     3.7990    -2.9080 c3         1 0X0      -0.087850
     19 C11          7.1350     0.1640    -1.6430 c3         1 0X0      -0.092200
     20 C13          7.7090     0.4620    -0.2560 c3         1 0X0      -0.087850
     21 C12          6.0380    -0.8960    -1.5240 c3         1 0X0      -0.087850
     22 O2           3.9770     0.6300    -2.2880 o          1 0X0      -0.602100
     23 C4           1.0750     1.8200    -1.8930 ca         1 0X0       0.140600
     24 C3           0.8720     1.0600    -3.0390 ca         1 0X0      -0.124000
     25 C2           0.0690     1.5400    -4.0550 ca         1 0X0      -0.181000
     26 C5           0.4650     3.0610    -1.7690 ca         1 0X0      -0.188000
     27 C6          -0.3400     3.5420    -2.7880 ca         1 0X0       0.123100
     28 O1          -0.9380     4.7570    -2.6670 os         1 0X0      -0.311900
     29 C7          -0.6920     5.4840    -1.4610 c3         1 0X0       0.126700
     30 C1          -0.5360     2.7800    -3.9360 ca         1 0X0       0.119100
     31 O           -1.3250     3.2510    -4.9380 os         1 0X0      -0.312900
     32 C           -1.4870     2.4140    -6.0850 c3         1 0X0       0.127700
     33 H23          0.0850    -1.5320    -2.0200 ha         1 0X0       0.149000
     34 H22          0.7800    -3.5190    -3.3070 ha         1 0X0       0.134500
     35 H21          3.9480    -5.3440    -2.6450 hc         1 0X0       0.047367
     36 H21A         3.4330    -4.5540    -4.1420 hc         1 0X0       0.047367
     37 H21B         2.2900    -5.5480    -3.2270 hc         1 0X0       0.047367
     38 H19          4.5310    -3.5280    -1.2660 ha         1 0X0       0.134500
     39 H18          3.8370    -1.5410     0.0190 ha         1 0X0       0.149000
     40 H8           3.4210     1.8050     0.4790 h1         1 0X0       0.083700
     41 H8A          3.0450     3.0700    -0.6990 h1         1 0X0       0.083700
     42 HN1          5.7040     2.6630    -0.6820 hn         1 0X0       0.313500
     43 H10          6.1270     1.2300    -3.2120 h1         1 0X0       0.081700
     44 H14          8.0990     2.6770    -1.4080 hc         1 0X0       0.055200
     45 H16          8.2340     1.4970    -4.1870 hc         1 0X0       0.037117
     46 H16A         9.3660     1.2920    -2.8420 hc         1 0X0       0.037117
     47 H16B         9.2970     2.8300    -3.7140 hc         1 0X0       0.037117
     48 H15          6.4750     4.2800    -2.1220 hc         1 0X0       0.037117
     49 H15A         6.3930     3.5800    -3.7440 hc         1 0X0       0.037117
     50 H15B         7.8400     4.4590    -3.2330 hc         1 0X0       0.037117
     51 H11          7.9240    -0.2040    -2.2880 hc         1 0X0       0.055200
     52 H13          8.6730     0.9460    -0.3600 hc         1 0X0       0.037117
     53 H13A         7.8270    -0.4640     0.2930 hc         1 0X0       0.037117
     54 H13B         7.0330     1.1160     0.2820 hc         1 0X0       0.037117
     55 H12          6.4860    -1.8540    -1.2900 hc         1 0X0       0.037117
     56 H12A         5.3500    -0.6170    -0.7350 hc         1 0X0       0.037117
     57 H12B         5.5020    -0.9670    -2.4630 hc         1 0X0       0.037117
     58 H3           1.3440     0.0890    -3.1350 ha         1 0X0       0.154000
     59 H2          -0.0860     0.9470    -4.9480 ha         1 0X0       0.143000
     60 H5           0.5880     3.6360    -0.8590 ha         1 0X0       0.144000
     61 H7          -1.2450     6.4160    -1.4830 h1         1 0X0       0.040700
     62 H7A          0.3670     5.6950    -1.3760 h1         1 0X0       0.040700
     63 H7B         -1.0130     4.8940    -0.6110 h1         1 0X0       0.040700
     64 H           -0.5200     2.2320    -6.5380 h1         1 0X0       0.040700
     65 HA          -2.1340     2.9050    -6.8020 h1         1 0X0       0.040700
     66 HB          -1.9290     1.4720    -5.7850 h1         1 0X0       0.040700
@<TRIPOS>BOND
     1     2     1 2
     2     3     2 2
     3    11     2 1
     4     2     4 1
     5     5     4 ar
     6     4    10 ar
     7    33     5 1
     8     5     6 ar
     9    34     6 1
    10     6     7 ar
    11     7     8 1
    12     7     9 ar
    13    35     8 1
    14    36     8 1
    15     8    37 1
    16    10     9 ar
    17     9    38 1
    18    10    39 1
    19    23    11 1
    20    11    12 1
    21    12    13 1
    22    12    40 1
    23    12    41 1
    24    22    13 2
    25    13    14 1
    26    14    15 1
    27    14    42 1
    28    43    15 1
    29    15    19 1
    30    15    16 1
    31    17    16 1
    32    16    44 1
    33    16    18 1
    34    45    17 1
    35    47    17 1
    36    17    46 1
    37    50    18 1
    38    18    48 1
    39    18    49 1
    40    20    19 1
    41    19    51 1
    42    19    21 1
    43    52    20 1
    44    53    20 1
    45    20    54 1
    46    21    57 1
    47    21    56 1
    48    21    55 1
    49    26    23 ar
    50    24    23 ar
    51    25    24 ar
    52    24    58 1
    53    30    25 ar
    54    59    25 1
    55    27    26 ar
    56    26    60 1
    57    28    27 1
    58    30    27 ar
    59    28    29 1
    60    61    29 1
    61    29    62 1
    62    29    63 1
    63    31    30 1
    64    32    31 1
    65    65    32 1
    66    64    32 1
    67    32    66 1
@<TRIPOS>SUBSTRUCTURE
     1 0X0         1 TEMP              0 ****  ****    0 ROOT
