@<TRIPOS>MOLECULE
0X1
   58    62     1     0     0
SMALL
bcc


@<TRIPOS>ATOM
      1 C1          -0.9790     0.1170     0.1240 ca         1 0X1      -0.068000
      2 C2           0.2330    -0.4970    -0.1930 ca         1 0X1       0.071100
      3 C3           0.8150    -0.7180     2.1450 ca         1 0X1      -0.166000
      4 C4          -7.9890     1.2530     0.4550 cc         1 0X1       0.037000
      5 C5          -6.1740     1.5110     2.0590 cd         1 0X1       0.159000
      6 C6          -1.3110     0.3220     1.4740 ca         1 0X1      -0.112000
      7 C7          -6.7610     1.8240     0.7920 cd         1 0X1      -0.199200
      8 C8          -0.4030    -0.0950     2.4930 ca         1 0X1       0.066700
      9 C9           1.1280    -0.9110     0.8080 ca         1 0X1      -0.091000
     10 C10         -6.8930     0.5680     2.8450 cd         1 0X1      -0.112900
     11 C11         -8.1360     0.0500     2.4120 cc         1 0X1       0.060800
     12 C12         -2.0080     0.7290     4.1790 cc         1 0X1       0.029700
     13 C13         -5.0060     2.1840     2.4440 c2         1 0X1      -0.490000
     14 C14         -2.5620     0.9550     1.8170 cd         1 0X1       0.049000
     15 C15         -2.9090     1.1630     3.1210 cc         1 0X1      -0.109400
     16 C16         -8.8350    -0.9310     3.2980 c3         1 0X1      -0.043900
     17 C17         -6.0810     2.7370    -0.1830 c3         1 0X1       0.253600
     18 N18         -8.6900     0.3940     1.2290 n2         1 0X1      -0.375000
     19 N19         -4.1670     1.8090     3.5310 ny         1 0X1      -0.394200
     20 N20         -0.7500     0.1540     3.8230 n          1 0X1      -0.124200
     21 O21         -4.7000     3.2870    -2.8190 o          1 0X1      -0.849000
     22 O22         -5.4120     0.8840    -2.4110 oh         1 0X1      -0.780400
     23 O23         -3.0590     1.3970    -1.9300 o          1 0X1      -0.849000
     24 O24         -6.4060     0.1920     4.0930 oh         1 0X1      -0.544100
     25 C25         -0.1340    -0.2370     5.0570 c          1 0X1       0.627300
     26 O26         -4.7770     2.3200    -0.4640 os         1 0X1      -0.594200
     27 P27         -4.3740     2.0810    -2.0440 p5         1 0X1       1.450800
     28 O28          0.5500    -0.8380    -1.5080 os         1 0X1      -0.268200
     29 C29          0.9400     0.2400    -2.3140 ca         1 0X1       0.073100
     30 C30         -0.0130     1.0990    -2.8740 ca         1 0X1      -0.133000
     31 C31          0.4200     2.0770    -3.7710 ca         1 0X1      -0.130500
     32 C32          1.7700     2.1900    -4.1010 ca         1 0X1      -0.143000
     33 C33          2.7080     1.3250    -3.5350 ca         1 0X1      -0.130500
     34 C34          2.3010     0.3450    -2.6330 ca         1 0X1      -0.133000
     35 N35         -1.0270     0.2770     6.0800 ns         1 0X1      -0.237900
     36 O36          0.9700    -0.7720     5.2210 o          1 0X1      -0.602500
     37 N37         -2.1740     0.7530     5.5180 nd         1 0X1      -0.282600
     38 H1          -1.6810     0.4500    -0.6770 ha         1 0X1       0.252000
     39 H3           1.5140    -1.0430     2.9330 ha         1 0X1       0.164000
     40 H4          -8.4560     1.4800    -0.5220 h4         1 0X1       0.149000
     41 H9           2.0730    -1.3980     0.5230 ha         1 0X1       0.146000
     42 H113        -5.0820     0.0250    -2.1810 ho         1 0X1       0.431000
     43 H213        -4.5640     2.9440     1.7840 hx         1 0X1       0.180000
     44 H14         -3.2360     1.2690     0.9820 ha         1 0X1       0.246000
     45 H116        -8.2700    -1.8970     3.2980 hc         1 0X1       0.038033
     46 H216        -8.8600    -0.5350     4.3430 hc         1 0X1       0.038033
     47 H316        -9.8810    -1.1320     2.9620 hc         1 0X1       0.038033
     48 H117        -6.6690     2.7950    -1.1430 h1         1 0X1       0.027700
     49 H217        -6.0330     3.7700     0.2740 h1         1 0X1       0.027700
     50 HN19        -4.6590     1.1700     4.1700 hn         1 0X1       0.435800
     51 HO24        -6.3420    -0.7740     4.0710 ho         1 0X1       0.395000
     52 H30         -1.0890     1.0150    -2.6110 ha         1 0X1       0.180000
     53 H31         -0.3210     2.7600    -4.2140 ha         1 0X1       0.133500
     54 H32          2.0990     2.9640    -4.8090 ha         1 0X1       0.121000
     55 H33          3.7710     1.4160    -3.7990 ha         1 0X1       0.133500
     56 H34          3.0250    -0.3460    -2.1810 ha         1 0X1       0.180000
     57 HN35        -1.1690    -0.2930     6.8930 hn         1 0X1       0.330500
     58 H192        -3.9020     2.6550     4.0470 hn         1 0X1       0.435800
@<TRIPOS>BOND
     1     1     2 ar  
     2     1     6 ar  
     3     1    38 1   
     4     2     9 ar  
     5     2    28 1   
     6     3     8 ar  
     7     3     9 ar  
     8     3    39 1   
     9     4     7 2   
    10     4    18 1   
    11     4    40 1   
    12     5     7 1   
    13     5    10 1   
    14     5    13 2   
    15     6     8 ar  
    16     6    14 1   
    17     7    17 1   
    18     8    20 1   
    19     9    41 1   
    20    10    11 2   
    21    10    24 1   
    22    11    16 1   
    23    11    18 1   
    24    12    15 1   
    25    12    20 1   
    26    12    37 2   
    27    13    19 1   
    28    13    43 1   
    29    14    15 2   
    30    14    44 1   
    31    15    19 1   
    32    16    45 1   
    33    16    46 1   
    34    16    47 1   
    35    17    26 1   
    36    17    48 1   
    37    17    49 1   
    38    19    50 1   
    39    19    58 1   
    40    20    25 1   
    41    21    27 1   
    42    22    27 1   
    43    22    42 1   
    44    23    27 1   
    45    24    51 1   
    46    25    35 1   
    47    25    36 2   
    48    26    27 1   
    49    28    29 1   
    50    29    30 ar  
    51    29    34 ar  
    52    30    31 ar  
    53    30    52 1   
    54    31    32 ar  
    55    31    53 1   
    56    32    33 ar  
    57    32    54 1   
    58    33    34 ar  
    59    33    55 1   
    60    34    56 1   
    61    35    37 1   
    62    35    57 1   
@<TRIPOS>SUBSTRUCTURE
     1 0X1         1 TEMP              0 ****  ****    0 ROOT
