@<TRIPOS>MOLECULE
molecule
   57    61     1     0     0
SMALL
bcc


@<TRIPOS>ATOM
      1 C1           0.0000     0.0000     0.0000 ca         1 0X1      -0.143000
      2 C2           1.3820     0.0000     0.0000 ca         1 0X1       0.089100
      3 C3           1.4060     0.0130     2.4050 ca         1 0X1      -0.122000
      4 C4          -8.4900     1.1650     1.9390 ca         1 0X1       0.448200
      5 C5          -6.4430     0.0100     1.5130 ca         1 0X1      -0.142300
      6 C6          -0.6930     0.0070     1.2140 ca         1 0X1       0.008000
      7 C7          -7.1370     1.2020     1.6540 ca         1 0X1      -0.131600
      8 C8           0.0170     0.0130     2.4240 ca         1 0X1       0.024700
      9 C9           2.0820     0.0000     1.2030 ca         1 0X1      -0.145000
     10 C10         -7.1410    -1.1830     1.6670 ca         1 0X1      -0.029200
     11 C11         -8.4960    -1.1390     1.9630 ca         1 0X1       0.353600
     12 C12         -2.0440     0.0210     3.6710 cc         1 0X1       0.013700
     13 C13         -4.9690     0.0090     1.2020 c3         1 0X1       0.291100
     14 C14         -2.1610     0.0070     1.2290 cd         1 0X1      -0.259000
     15 C15         -2.8120     0.0150     2.4180 cc         1 0X1       0.246600
     16 C16         -9.2630    -2.4230     2.1430 c3         1 0X1      -0.128400
     17 C17         -6.4270     2.5210     1.4970 c3         1 0X1       0.243700
     18 N18         -9.1200     0.0160     2.0830 nb         1 0X1      -0.695000
     19 N19         -4.2060     0.0150     2.4530 nu         1 0X1      -0.767600
     20 N20         -0.6630     0.0210     3.6400 n          1 0X1      -0.100200
     21 O21         -6.4830     5.4820     0.0850 o          1 0X1      -0.897833
     22 O22         -5.8240     5.4120     2.5200 o          1 0X1      -0.897833
     23 O23         -8.2040     6.0600     1.9860 o          1 0X1      -0.897833
     24 O24         -6.5030    -2.3760     1.5390 oh         1 0X1      -0.528100
     25 C25         -0.2120     0.0270     4.9120 c          1 0X1       0.660300
     26 O26         -7.3580     3.5890     1.6870 os         1 0X1      -0.573200
     27 P27         -6.9430     5.1410     1.5900 p5         1 0X1       1.158900
     28 O28          2.0600    -0.0010    -1.1780 os         1 0X1      -0.256200
     29 C29          1.9790     1.1060    -1.9610 ca         1 0X1       0.133100
     30 C30          2.5420     1.1030    -3.2300 ca         1 0X1      -0.182000
     31 C31          2.4580     2.2300    -4.0250 ca         1 0X1      -0.094500
     32 C32          1.8130     3.3600    -3.5560 ca         1 0X1      -0.167000
     33 C33          1.2510     3.3660    -2.2930 ca         1 0X1      -0.094500
     34 C34          1.3280     2.2400    -1.4970 ca         1 0X1      -0.182000
     35 N35         -1.2840     0.0310     5.7300 ns         1 0X1      -0.318900
     36 O36          0.9560     0.0270     5.2600 o          1 0X1      -0.678500
     37 N37         -2.4300     0.0270     4.9230 nd         1 0X1      -0.195600
     38 H1          -0.5440    -0.0000    -0.9370 ha         1 0X1       0.154000
     39 H3           1.9600     0.0130     3.3360 ha         1 0X1       0.172000
     40 H4          -9.0390     2.0920     2.0480 h4         1 0X1       0.089100
     41 H9           3.1650    -0.0000     1.1950 ha         1 0X1       0.138000
     42 H113        -4.7210     0.8910     0.6230 h1         1 0X1       0.055200
     43 H213        -4.7210    -0.8780     0.6320 h1         1 0X1       0.055200
     44 H14         -2.7120    -0.1510     0.3100 ha         1 0X1       0.158000
     45 H116       -10.2660    -2.2000     2.4850 hc         1 0X1       0.036700
     46 H216        -8.7620    -3.0430     2.8770 hc         1 0X1       0.036700
     47 H316        -9.3120    -2.9500     1.1980 hc         1 0X1       0.036700
     48 H117        -5.6370     2.5960     2.2340 h1         1 0X1       0.040200
     49 H217        -6.0020     2.5860     0.5030 h1         1 0X1       0.040200
     50 HN19        -4.6840    -0.0170     3.3310 hn         1 0X1       0.464800
     51 HO24        -6.6870    -2.7410     0.6890 ho         1 0X1       0.402000
     52 H30          3.0470     0.2180    -3.5970 ha         1 0X1       0.145500
     53 H31          2.8980     2.2280    -5.0150 ha         1 0X1       0.134500
     54 H32          1.7510     4.2440    -4.1800 ha         1 0X1       0.127000
     55 H33          0.7450     4.2530    -1.9300 ha         1 0X1       0.134500
     56 H34          0.8880     2.2440    -0.5080 ha         1 0X1       0.145500
     57 HN35        -1.2650     0.0370     6.7300 hn         1 0X1       0.390500
@<TRIPOS>BOND
     1     1     2 ar  
     2     1    38 1   
     3     2     9 ar  
     4     2    28 1   
     5     3     9 ar  
     6     3    39 1   
     7     4     7 ar  
     8     4    40 1   
     9     5    13 1   
    10     6     8 ar  
    11     6     1 ar  
    12     7     5 ar  
    13     7    17 1   
    14     8     3 ar  
    15     9    41 1   
    16    10    24 1   
    17    10     5 ar  
    18    11    10 ar  
    19    12    20 1   
    20    13    19 1   
    21    13    42 1   
    22    13    43 1   
    23    14     6 1   
    24    14    44 1   
    25    15    12 1   
    26    15    14 2   
    27    16    11 1   
    28    16    45 1   
    29    16    46 1   
    30    16    47 1   
    31    17    48 1   
    32    17    49 1   
    33    18    11 ar  
    34    18     4 ar  
    35    19    15 1   
    36    19    50 1   
    37    20     8 1   
    38    22    27 1   
    39    24    51 1   
    40    25    20 1   
    41    25    36 2   
    42    26    17 1   
    43    26    27 1   
    44    27    21 1   
    45    27    23 1   
    46    28    29 1   
    47    29    34 ar  
    48    30    31 ar  
    49    30    29 ar  
    50    30    52 1   
    51    31    32 ar  
    52    31    53 1   
    53    32    33 ar  
    54    32    54 1   
    55    33    55 1   
    56    34    33 ar  
    57    34    56 1   
    58    35    25 1   
    59    35    57 1   
    60    37    35 1   
    61    37    12 2   
@<TRIPOS>SUBSTRUCTURE
     1 0X1         1 TEMP              0 ****  ****    0 ROOT
