@<TRIPOS>MOLECULE
0X2
   26    27     1     0     0
SMALL
bcc


@<TRIPOS>ATOM
      1 C4           0.0000     0.0000     0.0000 ca         1 0X2      -0.159600
      2 C5           1.3970     0.0000     0.0000 ca         1 0X2      -0.000100
      3 C6           2.0840     0.0000     1.1970 ca         1 0X2      -0.100000
      4 C11         -3.0920    -2.3270    -4.6950 c          1 0X2       0.712700
      5 C7          -0.7430    -0.0060    -1.2760 c          1 0X2       0.584700
      6 C8          -1.8560    -1.1860    -2.9840 c2         1 0X2      -0.063600
      7 C9          -2.2660     0.1030    -3.6720 c3         1 0X2      -0.096500
      8 C10         -3.1210    -0.0250    -4.9140 c2         1 0X2       0.492200
      9 C12         -2.2910    -2.3430    -3.5330 ce         1 0X2      -0.331200
     10 N1          -1.0770    -1.1770    -1.8550 ns         1 0X2       0.008900
     11 N2          -3.4620    -1.2030    -5.3210 ne         1 0X2      -0.556100
     12 C3          -0.6920    -0.0010     1.2150 ca         1 0X2      -0.000100
     13 O1          -1.0540     1.0430    -1.8040 o          1 0X2      -0.602100
     14 Cl2         -2.4280    -0.0010     1.2280 cl         1 0X2       0.003100
     15 C2           0.0090    -0.0000     2.4040 ca         1 0X2      -0.100000
     16 Cl1          2.2670     0.0000    -1.5030 cl         1 0X2       0.003100
     17 C1           1.3930    -0.0000     2.3950 ca         1 0X2      -0.058000
     18 H1           3.1680     0.0000     1.1980 ha         1 0X2       0.123000
     19 H2          -2.8110     0.7030    -2.9530 hc         1 0X2       0.073200
     20 H3          -1.3620     0.6350    -3.9440 hc         1 0X2       0.073200
     21 H4          -3.2810     0.8360    -5.5520 h4         1 0X2      -0.005200
     22 H5          -2.0250    -3.2890    -3.0760 ha         1 0X2       0.136000
     23 H6          -0.7290    -2.0380    -1.4810 hn         1 0X2       0.181500
     24 H7          -0.5250    -0.0010     3.3470 ha         1 0X2       0.123000
     25 H8           1.9380     0.0000     3.3320 ha         1 0X2       0.113000
     26 O2          -3.4620    -3.3920    -5.1560 o          1 0X2      -0.554100
@<TRIPOS>BOND
     1     1     2 ar  
     2     1     5 1   
     3     1    12 ar  
     4     2     3 ar  
     5     2    16 1   
     6     3    17 ar  
     7     3    18 1   
     8     4     9 1   
     9     4    11 1   
    10     4    26 2   
    11     5    10 1   
    12     5    13 2   
    13     6     7 1   
    14     6     9 2   
    15     6    10 1   
    16     7     8 1   
    17     7    19 1   
    18     7    20 1   
    19     8    11 2   
    20     8    21 1   
    21     9    22 1   
    22    10    23 1   
    23    12    14 1   
    24    12    15 ar  
    25    15    17 ar  
    26    15    24 1   
    27    17    25 1   
@<TRIPOS>SUBSTRUCTURE
     1 0X2         1 TEMP              0 ****  ****    0 ROOT
