@<TRIPOS>MOLECULE
0X2
   27    28     1     0     0
SMALL
bcc


@<TRIPOS>ATOM
      1 C4           0.5700     0.2790    -0.2060 ca         1 0X2      -0.220600
      2 C5           1.8030     0.5790     0.4000 ca         1 0X2       0.061400
      3 C6           2.0100     0.2730     1.7500 ca         1 0X2      -0.107500
      4 C11         -3.3020     1.1620    -4.5580 c          1 0X2       0.672700
      5 C7           0.3890     0.5030    -1.6490 c          1 0X2       0.590700
      6 C8          -1.2580     1.5930    -3.2220 c2         1 0X2      -0.034200
      7 C9          -0.4810     1.8880    -4.4690 c3         1 0X2      -0.171500
      8 C10         -1.3470     1.7860    -5.6940 c2         1 0X2       0.501200
      9 C12         -2.5610     1.2510    -3.2490 ce         1 0X2      -0.162200
     10 N1          -0.5270     1.6960    -1.9530 ny         1 0X2      -0.567600
     11 N2          -2.5890     1.4660    -5.7560 ne         1 0X2      -0.579100
     12 C3          -0.4560    -0.3060     0.5580 ca         1 0X2       0.061400
     13 O1           0.8620    -0.0920    -2.5970 o          1 0X2      -0.363100
     14 Cl2         -1.9520    -0.6560    -0.1590 cl         1 0X2      -0.040900
     15 C2          -0.2430    -0.6130     1.9030 ca         1 0X2      -0.107500
     16 Cl1          3.0350     1.3190    -0.4910 cl         1 0X2      -0.040900
     17 C1           0.9910    -0.3250     2.4900 ca         1 0X2      -0.046000
     18 O2          -4.4880     0.8350    -4.5590 o          1 0X2      -0.411100
     19 H1           2.9820     0.4990     2.2230 ha         1 0X2       0.187000
     20 H2          -0.0430     2.9250    -4.4310 hc         1 0X2       0.113200
     21 H3           0.3700     1.1550    -4.5770 hc         1 0X2       0.113200
     22 H4          -0.8310     2.0120    -6.6540 h4         1 0X2       0.069800
     23 H5          -3.1720     1.0180    -2.3600 ha         1 0X2       0.182000
     24 H6          -1.1970     1.7930    -1.1770 hn         1 0X2       0.466300
     25 H7          -1.0440    -1.0870     2.4980 ha         1 0X2       0.187000
     26 H8           1.1610    -0.5760     3.5530 ha         1 0X2       0.181000
     27 H12          0.0600     2.5400    -1.9840 hn         1 0X2       0.466300
@<TRIPOS>BOND
     1     1     2 ar  
     2     1     5 1   
     3     1    12 ar  
     4     2     3 ar  
     5     2    16 1   
     6     3    17 ar  
     7     3    19 1   
     8     4     9 1   
     9     4    11 1   
    10     4    18 2   
    11     5    10 1   
    12     5    13 2   
    13     6     7 1   
    14     6     9 2   
    15     6    10 1   
    16     7     8 1   
    17     7    20 1   
    18     7    21 1   
    19     8    11 2   
    20     8    22 1   
    21     9    23 1   
    22    10    24 1   
    23    10    27 1   
    24    12    14 1   
    25    12    15 ar  
    26    15    17 ar  
    27    15    25 1   
    28    17    26 1   
@<TRIPOS>SUBSTRUCTURE
     1 0X2         1 TEMP              0 ****  ****    0 ROOT
