@<TRIPOS>MOLECULE
molecule
   36    38     1     0     0
SMALL
bcc


@<TRIPOS>ATOM
      1 C4           0.0000     0.0000     0.0000 ca         1 0X5      -0.136600
      2 C5           1.3980     0.0000     0.0000 ca         1 0X5       0.061900
      3 C6           2.0850     0.0000     1.1980 ca         1 0X5      -0.124500
      4 C11         -1.8840     1.1710    -2.9990 ca         1 0X5       0.117600
      5 C8          -0.7420    -0.0000    -1.2760 c          1 0X5       0.680700
      6 C12         -1.8260     2.2260    -3.9100 ca         1 0X5      -0.331300
      7 C13         -2.6330     2.1960    -5.0280 ca         1 0X5       0.471200
      8 C3          -0.6910    -0.0080     1.2150 ca         1 0X5       0.061900
      9 C1           1.3930    -0.0030     2.3960 ca         1 0X5      -0.094000
     10 C2           0.0100    -0.0090     2.4040 ca         1 0X5      -0.124500
     11 Cl1          2.2680     0.0030    -1.5020 cl         1 0X5      -0.076900
     12 O9          -1.0470    -1.0520    -1.8030 o          1 0X5      -0.562100
     13 N10         -1.0820     1.1680    -1.8580 ns         1 0X5      -0.459100
     14 N14         -3.4560     1.1860    -5.2420 nb         1 0X5      -0.700000
     15 C15         -3.5430     0.1650    -4.4030 ca         1 0X5       0.574200
     16 C16         -2.7660     0.1250    -3.2540 ca         1 0X5      -0.310300
     17 N17         -4.4320    -0.8760    -4.6710 ns         1 0X5      -0.546400
     18 C18         -5.1140    -0.8960    -5.8330 c          1 0X5       0.681100
     19 O19         -5.0250     0.0360    -6.6040 o          1 0X5      -0.533100
     20 C20         -5.9870    -2.0760    -6.1730 cx         1 0X5      -0.239700
     21 C21         -6.7350    -2.0400    -7.5080 cx         1 0X5      -0.109400
     22 C22         -5.5390    -2.9770    -7.3250 cx         1 0X5      -0.109400
     23 Cl2         -2.4270    -0.0150     1.2280 cl         1 0X5      -0.076900
     24 H1           3.1680     0.0030     1.2000 ha         1 0X5       0.154000
     25 H2          -1.1530     3.0580    -3.7430 ha         1 0X5       0.136000
     26 H3          -2.5920     3.0120    -5.7390 h4         1 0X5       0.029100
     27 H4           1.9370    -0.0030     3.3320 ha         1 0X5       0.148000
     28 H5          -0.5250    -0.0140     3.3470 ha         1 0X5       0.154000
     29 H6          -0.7680     2.0330    -1.4650 hn         1 0X5       0.333500
     30 H7          -2.8390    -0.7120    -2.5690 ha         1 0X5       0.172000
     31 H8          -4.5280    -1.6310    -4.0220 hn         1 0X5       0.333500
     32 H9          -6.5100    -2.5880    -5.3740 hc         1 0X5       0.085700
     33 H10         -7.7070    -2.5180    -7.5120 hc         1 0X5       0.084950
     34 H11         -6.5550    -1.1660    -8.1220 hc         1 0X5       0.084950
     35 H12         -4.6280    -2.6750    -7.8270 hc         1 0X5       0.084950
     36 H13         -5.7800    -4.0280    -7.2180 hc         1 0X5       0.084950
@<TRIPOS>BOND
     1    21    22 1   
     2    21    20 1   
     3    22    20 1   
     4    20    18 1   
     5    18    19 2   
     6    18    17 1   
     7    17    15 1   
     8    15    16 ar  
     9    15    14 ar  
    10    16     4 ar  
    11    14     7 ar  
    12    13     4 1   
    13    13     5 1   
    14     4     6 ar  
    15     9    10 ar  
    16     9     3 ar  
    17    10     8 ar  
    18     3     2 ar  
    19     8    23 1   
    20     8     1 ar  
    21     2     1 ar  
    22     2    11 1   
    23     1     5 1   
    24     5    12 2   
    25     7     6 ar  
    26     3    24 1   
    27     6    25 1   
    28     7    26 1   
    29     9    27 1   
    30    10    28 1   
    31    13    29 1   
    32    16    30 1   
    33    17    31 1   
    34    20    32 1   
    35    21    33 1   
    36    21    34 1   
    37    22    35 1   
    38    22    36 1   
@<TRIPOS>SUBSTRUCTURE
     1 0X5         1 TEMP              0 ****  ****    0 ROOT
