@<TRIPOS>MOLECULE
0X5
   36    38     1     0     0
SMALL
bcc


@<TRIPOS>ATOM
      1 C4           0.1060     0.1160    -0.0130 ca         1 0X5      -0.143600
      2 C5           1.4580    -0.2520     0.0240 ca         1 0X5       0.052400
      3 C6           2.1550    -0.2710     1.2370 ca         1 0X5      -0.129000
      4 C11         -1.9970    -1.1940    -2.8710 ca         1 0X5       0.126600
      5 C8          -0.6220     0.2000    -1.3220 c          1 0X5       0.691700
      6 C12         -2.2490    -0.1980    -3.8340 ca         1 0X5      -0.303300
      7 C13         -3.0200    -0.5470    -4.9540 ca         1 0X5       0.444200
      8 C3          -0.5450     0.4490     1.1830 ca         1 0X5       0.052400
      9 C1           1.4960     0.0720     2.4160 ca         1 0X5      -0.096000
     10 C2           0.1490     0.4300     2.3970 ca         1 0X5      -0.129000
     11 Cl1          2.2680    -0.6800    -1.4040 cl         1 0X5      -0.059900
     12 O9          -0.6450     1.2490    -1.9830 o          1 0X5      -0.550100
     13 N10         -1.2470    -0.9790    -1.7080 ns         1 0X5      -0.460100
     14 N14         -3.5430    -1.7550    -5.1860 nb         1 0X5      -0.736000
     15 C15         -3.3000    -2.7360    -4.2500 ca         1 0X5       0.550200
     16 C16         -2.5310    -2.4910    -3.0880 ca         1 0X5      -0.320300
     17 N17         -3.8420    -4.0080    -4.5330 ns         1 0X5      -0.547400
     18 C18         -3.9860    -5.0690    -3.6470 c          1 0X5       0.700100
     19 O19         -3.5770    -5.0370    -2.4720 o          1 0X5      -0.593100
     20 C20         -4.6670    -6.2830    -4.2120 cx         1 0X5      -0.229700
     21 C21         -4.9470    -7.4330    -3.2780 cx         1 0X5      -0.103900
     22 C22         -6.0770    -6.5830    -3.7670 cx         1 0X5      -0.103900
     23 Cl2         -2.1870     0.8770     1.1740 cl         1 0X5      -0.059900
     24 H1           3.2180    -0.5550     1.2580 ha         1 0X5       0.157000
     25 H2          -1.8650     0.8270    -3.7310 ha         1 0X5       0.183000
     26 H3          -3.2370     0.2110    -5.7300 h4         1 0X5       0.025100
     27 H4           2.0440     0.0600     3.3710 ha         1 0X5       0.148000
     28 H5          -0.3660     0.6980     3.3320 ha         1 0X5       0.157000
     29 H6          -1.1610    -1.7630    -1.0970 hn         1 0X5       0.330500
     30 H7          -2.3520    -3.2960    -2.3580 ha         1 0X5       0.178000
     31 H8          -4.2820    -4.1050    -5.4250 hn         1 0X5       0.333500
     32 H9          -4.3800    -6.5120    -5.2570 hc         1 0X5       0.098700
     33 H10         -4.8320    -8.4610    -3.6650 hc         1 0X5       0.084200
     34 H11         -4.6220    -7.3400    -2.2240 hc         1 0X5       0.084200
     35 H12         -6.5720    -5.8920    -3.0600 hc         1 0X5       0.084200
     36 H13         -6.7840    -6.9900    -4.5120 hc         1 0X5       0.084200
@<TRIPOS>BOND
     1     1     2 ar  
     2     1     5 1   
     3     1     8 ar  
     4     2     3 ar  
     5     2    11 1   
     6     3     9 ar  
     7     3    24 1   
     8     4     6 ar  
     9     4    13 1   
    10     4    16 ar  
    11     5    12 2   
    12     5    13 1   
    13     6     7 ar  
    14     6    25 1   
    15     7    14 ar  
    16     7    26 1   
    17     8    10 ar  
    18     8    23 1   
    19     9    10 ar  
    20     9    27 1   
    21    10    28 1   
    22    13    29 1   
    23    14    15 ar  
    24    15    16 ar  
    25    15    17 1   
    26    16    30 1   
    27    17    18 1   
    28    17    31 1   
    29    18    19 2   
    30    18    20 1   
    31    20    21 1   
    32    20    22 1   
    33    20    32 1   
    34    21    22 1   
    35    21    33 1   
    36    21    34 1   
    37    22    35 1   
    38    22    36 1   
@<TRIPOS>SUBSTRUCTURE
     1 0X5         1 TEMP              0 ****  ****    0 ROOT
