@<TRIPOS>MOLECULE
0X5
   36    38     1     0     0
SMALL
bcc


@<TRIPOS>ATOM
      1 C4           0.0000     0.0000     0.0000 ca         1 0X5      -0.151600
      2 C5           1.3980     0.0000     0.0000 ca         1 0X5      -0.001100
      3 C6           2.0850     0.0000     1.1980 ca         1 0X5      -0.102500
      4 C11         -1.8840     1.1710    -2.9990 ca         1 0X5      -0.034400
      5 C8          -0.7420    -0.0000    -1.2760 c          1 0X5       0.584700
      6 C12         -1.8260     2.2260    -3.9100 ca         1 0X5      -0.296300
      7 C13         -2.6330     2.1960    -5.0280 ca         1 0X5       0.453200
      8 C3          -0.6910    -0.0080     1.2150 ca         1 0X5      -0.001100
      9 C1           1.3930    -0.0030     2.3960 ca         1 0X5      -0.062000
     10 C2           0.0100    -0.0090     2.4040 ca         1 0X5      -0.102500
     11 Cl1          2.2680     0.0030    -1.5020 cl         1 0X5       0.001600
     12 O9          -1.0470    -1.0520    -1.8030 o          1 0X5      -0.608100
     13 N10         -1.0820     1.1680    -1.8580 ns         1 0X5      -0.010100
     14 N14         -3.4560     1.1860    -5.2420 nb         1 0X5      -0.573000
     15 C15         -3.5430     0.1650    -4.4030 ca         1 0X5       0.384200
     16 C16         -2.7660     0.1250    -3.2540 ca         1 0X5      -0.288300
     17 N17         -4.4320    -0.8760    -4.6710 ns         1 0X5      -0.108400
     18 C18         -5.1140    -0.8960    -5.8330 c          1 0X5       0.584100
     19 O19         -5.0250     0.0360    -6.6040 o          1 0X5      -0.574100
     20 C20         -5.9870    -2.0760    -6.1730 cx         1 0X5      -0.220700
     21 C21         -6.7350    -2.0400    -7.5080 cx         1 0X5      -0.050400
     22 C22         -5.5390    -2.9770    -7.3250 cx         1 0X5      -0.050400
     23 Cl2         -2.4270    -0.0150     1.2280 cl         1 0X5       0.001600
     24 H1           3.1680     0.0030     1.2000 ha         1 0X5       0.121000
     25 H2          -1.1530     3.0580    -3.7430 ha         1 0X5       0.116000
     26 H3          -2.5920     3.0120    -5.7390 h4         1 0X5      -0.018900
     27 H4           1.9370    -0.0030     3.3320 ha         1 0X5       0.111000
     28 H5          -0.5250    -0.0140     3.3470 ha         1 0X5       0.121000
     29 H6          -0.7680     2.0330    -1.4650 hn         1 0X5       0.173500
     30 H7          -2.8390    -0.7120    -2.5690 ha         1 0X5       0.161000
     31 H8          -4.5280    -1.6310    -4.0220 hn         1 0X5       0.173500
     32 H9          -6.5100    -2.5880    -5.3740 hc         1 0X5       0.060700
     33 H10         -7.7070    -2.5180    -7.5120 hc         1 0X5       0.051950
     34 H11         -6.5550    -1.1660    -8.1220 hc         1 0X5       0.051950
     35 H12         -4.6280    -2.6750    -7.8270 hc         1 0X5       0.051950
     36 H13         -5.7800    -4.0280    -7.2180 hc         1 0X5       0.051950
@<TRIPOS>BOND
     1     1     2 ar  
     2     1     5 1   
     3     1     8 ar  
     4     2     3 ar  
     5     2    11 1   
     6     3     9 ar  
     7     3    24 1   
     8     4     6 ar  
     9     4    13 1   
    10     4    16 ar  
    11     5    12 2   
    12     5    13 1   
    13     6     7 ar  
    14     6    25 1   
    15     7    14 ar  
    16     7    26 1   
    17     8    10 ar  
    18     8    23 1   
    19     9    10 ar  
    20     9    27 1   
    21    10    28 1   
    22    13    29 1   
    23    14    15 ar  
    24    15    16 ar  
    25    15    17 1   
    26    16    30 1   
    27    17    18 1   
    28    17    31 1   
    29    18    19 2   
    30    18    20 1   
    31    20    21 1   
    32    20    22 1   
    33    20    32 1   
    34    21    22 1   
    35    21    33 1   
    36    21    34 1   
    37    22    35 1   
    38    22    36 1   
@<TRIPOS>SUBSTRUCTURE
     1 0X5         1 TEMP              0 ****  ****    0 ROOT
