@<TRIPOS>MOLECULE
0X6
   37    39     1     0     0
SMALL
bcc


@<TRIPOS>ATOM
      1 C4          -0.0370    -0.1190    -0.0560 ca         1 0X6       0.551200
      2 C14          7.8820    -1.0200     1.5470 ca         1 0X6      -0.095000
      3 C5           1.3750    -0.0360    -0.0310 ca         1 0X6      -0.318300
      4 C6           2.0490    -0.0850     1.2160 ca         1 0X6       0.123600
      5 C11          6.3850     1.3200     1.9070 ca         1 0X6       0.045400
      6 C8           4.2890    -0.0180     2.3120 c          1 0X6       0.688700
      7 C10          5.7520     0.0710     1.9810 ca         1 0X6      -0.124600
      8 C12          7.7590     1.4070     1.6630 ca         1 0X6      -0.095000
      9 C13          8.5030     0.2340     1.4850 ca         1 0X6       0.023000
     10 N3          -0.7830    -0.2380     1.0960 nb         1 0X6      -0.734000
     11 C1           1.2800    -0.2050     2.3890 ca         1 0X6      -0.302300
     12 C2          -0.1160    -0.2730     2.2540 ca         1 0X6       0.445200
     13 N7           3.4490    -0.0090     1.2090 ns         1 0X6      -0.459100
     14 O9           3.9030    -0.0930     3.4880 o          1 0X6      -0.546100
     15 C15          6.5070    -1.0950     1.7920 ca         1 0X6       0.045400
     16 Cl1          5.7650    -2.6160     1.8550 cl         1 0X6      -0.045900
     17 C17          9.9010     0.3170     1.2380 cg         1 0X6       0.221800
     18 N18         11.0450     0.3840     1.0360 n1         1 0X6      -0.331800
     19 N20         -0.7680    -0.0580    -1.2610 ns         1 0X6      -0.547400
     20 C21         -0.2680    -0.2190    -2.5490 c          1 0X6       0.701100
     21 O22          0.9420    -0.3790    -2.7940 o          1 0X6      -0.593100
     22 C23         -1.2960    -0.1740    -3.6420 cx         1 0X6      -0.229700
     23 C24         -0.8350    -0.4290    -5.0550 cx         1 0X6      -0.103900
     24 C25         -1.6500    -1.4620    -4.3430 cx         1 0X6      -0.103900
     25 H1           8.4720    -1.9390     1.4050 ha         1 0X6       0.169500
     26 H2           1.9440     0.0600    -0.9690 ha         1 0X6       0.179000
     27 H3           8.2540     2.3910     1.6120 ha         1 0X6       0.169500
     28 H4           1.7360    -0.2460     3.3890 ha         1 0X6       0.182000
     29 H5          -0.7520    -0.3670     3.1550 h4         1 0X6       0.027100
     30 H6           3.8740     0.0530     0.3080 hn         1 0X6       0.330500
     31 H7          -1.7620    -0.0240    -1.1670 hn         1 0X6       0.333500
     32 H8          -2.0940     0.5770    -3.4780 hc         1 0X6       0.098700
     33 H9           0.2420    -0.6190    -5.2250 hc         1 0X6       0.084700
     34 H10         -1.2920     0.1610    -5.8690 hc         1 0X6       0.084700
     35 H11         -1.1610    -2.3990    -4.0190 hc         1 0X6       0.084700
     36 H12         -2.7020    -1.6250    -4.6370 hc         1 0X6       0.084700
     37 Cl2          5.4940     2.7470     2.1120 cl         1 0X6      -0.045900
@<TRIPOS>BOND
     1     1     3 ar  
     2     1    10 ar  
     3     1    19 1   
     4     2     9 ar  
     5     2    15 ar  
     6     2    25 1   
     7     3     4 ar  
     8     3    26 1   
     9     4    11 ar  
    10     4    13 1   
    11     5     7 ar  
    12     5     8 ar  
    13     5    37 1   
    14     6     7 1   
    15     6    13 1   
    16     6    14 2   
    17     7    15 ar  
    18     8     9 ar  
    19     8    27 1   
    20     9    17 1   
    21    10    12 ar  
    22    11    12 ar  
    23    11    28 1   
    24    12    29 1   
    25    13    30 1   
    26    15    16 1   
    27    17    18 3   
    28    19    20 1   
    29    19    31 1   
    30    20    21 2   
    31    20    22 1   
    32    22    23 1   
    33    22    24 1   
    34    22    32 1   
    35    23    24 1   
    36    23    33 1   
    37    23    34 1   
    38    24    35 1   
    39    24    36 1   
@<TRIPOS>SUBSTRUCTURE
     1 0X6         1 TEMP              0 ****  ****    0 ROOT
