@<TRIPOS>MOLECULE
molecule
   37    39     1     0     0
SMALL
bcc


@<TRIPOS>ATOM
      1 C4           0.0000     0.0000     0.0000 ca         1 0X6       0.540200
      2 C14          7.5890     1.8820     1.5630 ca         1 0X6      -0.102500
      3 C5           1.3870     0.0000     0.0000 ca         1 0X6      -0.220300
      4 C6           2.0620     0.0000     1.2170 ca         1 0X6      -0.386400
      5 C11          6.3330    -0.2270     2.8820 ca         1 0X6       0.070900
      6 C8           4.0990     0.6690     2.2390 c          1 0X6      -0.185300
      7 C10          5.5750     0.7510     2.2310 ca         1 0X6      -0.093600
      8 C12          7.7090    -0.1490     2.8740 ca         1 0X6      -0.102500
      9 C13          8.3460     0.9050     2.2150 ca         1 0X6       0.039000
     10 N3          -0.6760    -0.0000     1.1400 nb         1 0X6      -0.664000
     11 C1           1.3100    -0.0000     2.3930 ca         1 0X6      -0.232300
     12 C2          -0.0670     0.0000     2.3100 ca         1 0X6       0.448200
     13 N7           3.4560    -0.0010     1.2610 ns         1 0X6       0.059900
     14 O9           3.5470    -0.3600     1.8990 o          1 0X6       0.287900
     15 C15          6.2120     1.8050     1.5710 ca         1 0X6       0.070900
     16 Cl1          5.2450     3.1130     0.8380 cl         1 0X6      -0.082400
     17 C17          9.8700     0.7980     2.2170 cg         1 0X6       0.225800
     18 N18         11.0000     0.7280     2.2370 n1         1 0X6      -0.336800
     19 N20         -0.6900     0.0050    -1.2120 ns         1 0X6      -0.547400
     20 C21         -2.0330    -0.1080    -1.2230 c          1 0X6       0.681100
     21 O22         -2.6330    -0.3090    -0.1890 o          1 0X6      -0.533100
     22 C23         -2.7890     0.0150    -2.5220 cx         1 0X6      -0.245700
     23 C24         -4.3110    -0.1210    -2.4680 cx         1 0X6      -0.108900
     24 C25         -3.6730     1.2490    -2.7090 cx         1 0X6      -0.108900
     25 H1           8.0830     2.6990     1.0520 ha         1 0X6       0.164000
     26 H2           1.9290     0.0000    -0.9380 ha         1 0X6       0.140000
     27 H3           8.2980    -0.9060     3.3780 ha         1 0X6       0.164000
     28 H4           1.8070    -0.0000     3.3550 ha         1 0X6       0.161000
     29 H5          -0.6500     0.0000     3.2230 h4         1 0X6       0.034100
     30 H6           3.9520    -0.8630     1.3710 hn         1 0X6       0.186500
     31 H7          -0.2320     0.3140    -2.0470 hn         1 0X6       0.326500
     32 H8          -2.2530     0.0620    -3.4620 hc         1 0X6       0.089700
     33 H9          -4.7300    -0.2980    -1.4850 hc         1 0X6       0.085950
     34 H10         -4.7720    -0.5600    -3.3440 hc         1 0X6       0.085950
     35 H11         -3.7620     1.6100    -3.7270 hc         1 0X6       0.085950
     36 H12         -3.6840     1.9460    -1.8800 hc         1 0X6       0.085950
     37 Cl2          5.5190    -1.5230     3.7990 cl         1 0X6      -0.082400
@<TRIPOS>BOND
     1    23    24 1   
     2    23    22 1   
     3    24    22 1   
     4    22    20 1   
     5    20    21 2   
     6    20    19 1   
     7    19     1 1   
     8     1     3 ar  
     9     1    10 ar  
    10     3     4 ar  
    11    18    17 3   
    12    17     9 1   
    13    10    12 ar  
    14     2     9 ar  
    15     2    15 ar  
    16     9     8 ar  
    17    13     4 1   
    18    13     6 1   
    19     4    11 ar  
    20    16    15 1   
    21    15     7 ar  
    22     8     5 ar  
    23     5     7 ar  
    24     5    37 1   
    25     7     6 1   
    26     6    14 2   
    27    12    11 ar  
    28     2    25 1   
    29     3    26 1   
    30     8    27 1   
    31    11    28 1   
    32    12    29 1   
    33    13    30 1   
    34    19    31 1   
    35    22    32 1   
    36    23    33 1   
    37    23    34 1   
    38    24    35 1   
    39    24    36 1   
@<TRIPOS>SUBSTRUCTURE
     1 0X6         1 TEMP              0 ****  ****    0 ROOT
