@<TRIPOS>MOLECULE
0XC
   22    21     1     0     0
SMALL
bcc


@<TRIPOS>ATOM
      1 OXT          1.7290     2.4940    -1.0900 oh         1 0XC      -0.566100
      2 C            1.6710     1.1620    -0.8370 c          1 0XC       0.548800
      3 O            0.9110     0.8360     0.0720 o          1 0XC      -0.482000
      4 CA           2.4670     0.2090    -1.6900 ce         1 0XC       0.378300
      5 N            3.7430     0.1840    -1.5760 n2         1 0XC      -0.727100
      6 CB           1.5950    -0.6340    -2.5850 c3         1 0XC      -0.175700
      7 CG           1.7260    -0.2390    -4.0430 c3         1 0XC      -0.076400
      8 CD           1.3640     1.2130    -4.2940 c3         1 0XC      -0.095400
      9 CE           2.6080     2.0510    -4.5950 c3         1 0XC       0.151800
     10 NZ           2.4010     3.4680    -4.4170 n8         1 0XC      -0.926800
     11 H3           4.2160    -0.4840    -2.1500 hn         1 0XC       0.398400
     12 H6           0.5240    -0.5390    -2.2590 hc         1 0XC       0.072700
     13 H7           1.8800    -1.7150    -2.4670 hc         1 0XC       0.072700
     14 H8           2.7710    -0.4480    -4.3960 hc         1 0XC       0.048700
     15 H9           1.0430    -0.9000    -4.6410 hc         1 0XC       0.048700
     16 H10          0.8230     1.6300    -3.4020 hc         1 0XC       0.054700
     17 H11          0.6600     1.2820    -5.1640 hc         1 0XC       0.054700
     18 H12          2.9610     1.7870    -5.6360 h1         1 0XC       0.026700
     19 H13          3.4360     1.7550    -3.8870 h1         1 0XC       0.026700
     20 H14          1.5540     3.7720    -4.8550 hn         1 0XC       0.355800
     21 H15          2.3480     2.6800    -1.8140 ho         1 0XC       0.454000
     22 HZ3          3.1720     3.9860    -4.7900 hn         1 0XC       0.355800
@<TRIPOS>BOND
     1     1     2 1   
     2     1    21 1   
     3     2     3 2   
     4     2     4 1   
     5     4     5 2   
     6     4     6 1   
     7     5    11 1   
     8     6     7 1   
     9     6    12 1   
    10     6    13 1   
    11     7     8 1   
    12     7    14 1   
    13     7    15 1   
    14     8     9 1   
    15     8    16 1   
    16     8    17 1   
    17     9    10 1   
    18     9    18 1   
    19     9    19 1   
    20    10    20 1   
    21    10    22 1   
@<TRIPOS>SUBSTRUCTURE
     1 0XC         1 TEMP              0 ****  ****    0 ROOT
