@<TRIPOS>MOLECULE
molecule
   22    21     1     0     0
SMALL
bcc


@<TRIPOS>ATOM
      1 OXT          0.0000     0.0000     0.0000 o          1 0XC      -0.801300
      2 C            1.2140     0.0000     0.0000 c          1 0XC       0.797300
      3 O            1.8870     0.0000     1.1660 o          1 0XC      -0.801300
      4 CA           1.9550    -0.0000    -1.2830 ce         1 0XC       0.403300
      5 N            3.2350    -0.0010    -1.2830 n2         1 0XC      -0.764100
      6 CB           1.2020    -0.0000    -2.5880 c3         1 0XC      -0.178700
      7 CG           2.1960    -0.0010    -3.7510 c3         1 0XC      -0.090400
      8 CD           1.4310    -0.0000    -5.0760 c3         1 0XC      -0.108400
      9 CE           2.4250    -0.0010    -6.2390 c3         1 0XC       0.084800
     10 NZ           1.6910    -0.0000    -7.5110 nz         1 0XC      -0.811600
     11 H3           3.7350    -0.0010    -2.1500 hn         1 0XC       0.327400
     12 H6           0.5780    -0.8840    -2.6460 hc         1 0XC       0.066700
     13 H7           0.5790     0.8850    -2.6460 hc         1 0XC       0.066700
     14 H8           2.8180    -0.8860    -3.6940 hc         1 0XC       0.054700
     15 H9           2.8190     0.8830    -3.6940 hc         1 0XC       0.054700
     16 H10          0.8070    -0.8850    -5.1330 hc         1 0XC       0.063700
     17 H11          0.8090     0.8840    -5.1340 hc         1 0XC       0.063700
     18 H12          3.0490     0.8830    -6.1820 hx         1 0XC       0.109700
     19 H13          3.0470    -0.8860    -6.1820 hx         1 0XC       0.109700
     20 H14          1.1170     0.8180    -7.5650 hn         1 0XC       0.451133
     21 H15          1.1150    -0.8170    -7.5650 hn         1 0XC       0.451133
     22 HZ3          2.3420    -0.0010    -8.2720 hn         1 0XC       0.451133
@<TRIPOS>BOND
     1     3     2 1   
     2     2     1 1   
     3     2     4 1   
     4     6     4 1   
     5     6     7 1   
     6     4     5 2   
     7     7     8 1   
     8     8     9 1   
     9     9    10 1   
    10     5    11 1   
    11     6    12 1   
    12     6    13 1   
    13     7    14 1   
    14     7    15 1   
    15     8    16 1   
    16     8    17 1   
    17     9    18 1   
    18     9    19 1   
    19    10    20 1   
    20    10    21 1   
    21    22    10 1   
@<TRIPOS>SUBSTRUCTURE
     1 0XC         1 TEMP              0 ****  ****    0 ROOT
