@<TRIPOS>MOLECULE
0XD
   17    16     1     0     0
SMALL
bcc


@<TRIPOS>ATOM
      1 CE          -0.3360     0.1440     0.0780 c3         1 0XD      -0.025000
      2 SD           1.2070    -0.6600     0.3180 ss         1 0XD      -0.378200
      3 CG           1.6970    -0.1740     1.9580 c3         1 0XD       0.028700
      4 CB           1.8680     1.3090     2.1360 c3         1 0XD      -0.132700
      5 CA           2.2070     1.7200     3.5450 ce         1 0XD       0.353300
      6 C            1.7100     3.1400     3.9100 c          1 0XD       0.782300
      7 O            0.8930     3.7070     3.1350 o          1 0XD      -0.824300
      8 OXT          2.1540     3.6380     4.9820 o          1 0XD      -0.824300
      9 N            2.8640     0.9560     4.3450 n2         1 0XD      -0.822100
     10 H1          -1.0600    -0.1130     0.8820 h1         1 0XD       0.057700
     11 H2          -0.2230     1.2520     0.0490 h1         1 0XD       0.057700
     12 H3          -0.7270    -0.2110    -0.9010 h1         1 0XD       0.057700
     13 H4           2.6670    -0.7100     2.1160 h1         1 0XD       0.070200
     14 H5           0.9560    -0.5650     2.6950 h1         1 0XD       0.070200
     15 H6           0.9200     1.8480     1.8550 hc         1 0XD       0.070200
     16 H7           2.6810     1.6920     1.4630 hc         1 0XD       0.070200
     17 H10          3.0300     1.3820     5.2380 hn         1 0XD       0.387400
@<TRIPOS>BOND
     1     1     2 1   
     2     1    10 1   
     3     1    11 1   
     4     1    12 1   
     5     2     3 1   
     6     3     4 1   
     7     3    13 1   
     8     3    14 1   
     9     4     5 1   
    10     4    15 1   
    11     4    16 1   
    12     5     6 1   
    13     5     9 2   
    14     6     7 1   
    15     6     8 1   
    16     9    17 1   
@<TRIPOS>SUBSTRUCTURE
     1 0XD         1 TEMP              0 ****  ****    0 ROOT
