@<TRIPOS>MOLECULE
molecule
   17    16     1     0     0
SMALL
bcc


@<TRIPOS>ATOM
      1 CE           0.0000     0.0000     0.0000 c3         1 0XD       0.007000
      2 SD           1.8150     0.0000     0.0000 ss         1 0XD      -0.410200
      3 CG           2.2230     0.0000     1.7670 c3         1 0XD       0.045700
      4 CB           3.7430    -0.0000     1.9390 c3         1 0XD      -0.093700
      5 CA           4.0830    -0.0000     3.4070 ce         1 0XD       0.391300
      6 C            5.5010    -0.0000     3.8400 c          1 0XD       0.754300
      7 O            6.3880    -0.0000     3.0120 o          1 0XD      -0.830800
      8 OXT          5.8040     0.0000     5.1520 o          1 0XD      -0.830800
      9 N            3.1470     0.0000     4.2810 n2         1 0XD      -0.849100
     10 H1          -0.3610    -0.0000    -1.0210 h1         1 0XD       0.048700
     11 H2          -0.3610     0.8850     0.5100 h1         1 0XD       0.048700
     12 H3          -0.3610    -0.8840     0.5110 h1         1 0XD       0.048700
     13 H4           1.8070     0.8850     2.2340 h1         1 0XD       0.063700
     14 H5           1.8070    -0.8850     2.2340 h1         1 0XD       0.063700
     15 H6           4.1590    -0.8840     1.4720 hc         1 0XD       0.066700
     16 H7           4.1590     0.8840     1.4720 hc         1 0XD       0.066700
     17 H10          3.3720     0.0000     5.2560 hn         1 0XD       0.411400
@<TRIPOS>BOND
     1     7     6 1
     2     6     8 1
     3     6     5 1
     4     5     4 1
     5     5     9 2
     6     4     3 1
     7     1     2 1
     8     3     2 1
     9     1    10 1
    10     1    11 1
    11     1    12 1
    12     3    13 1
    13     3    14 1
    14     4    15 1
    15     4    16 1
    16     9    17 1
@<TRIPOS>SUBSTRUCTURE
     1 0XD         1 TEMP              0 ****  ****    0 ROOT
