@<TRIPOS>MOLECULE
0XD
   17    16     1     0     0
SMALL
bcc


@<TRIPOS>ATOM
      1 CE           0.0000     0.0000     0.0000 c3         1 0XD       0.105000
      2 SD           1.8150     0.0000     0.0000 ss         1 0XD      -0.421200
      3 CG           2.2230     0.0000     1.7670 c3         1 0XD       0.076700
      4 CB           3.7430    -0.0000     1.9390 c3         1 0XD      -0.089700
      5 CA           4.0830    -0.0000     3.4070 ce         1 0XD       0.339300
      6 C            5.5010    -0.0000     3.8400 c          1 0XD       0.888300
      7 O            6.3880    -0.0000     3.0120 o          1 0XD      -0.872800
      8 OXT          5.8040     0.0000     5.1520 o          1 0XD      -0.872800
      9 N            3.1470     0.0000     4.2810 n2         1 0XD      -0.657100
     10 H1          -0.3610    -0.0000    -1.0210 h1         1 0XD       0.024367
     11 H2          -0.3610     0.8850     0.5100 h1         1 0XD       0.024367
     12 H3          -0.3610    -0.8840     0.5110 h1         1 0XD       0.024367
     13 H4           1.8070     0.8850     2.2340 h1         1 0XD       0.034700
     14 H5           1.8070    -0.8850     2.2340 h1         1 0XD       0.034700
     15 H6           4.1590    -0.8840     1.4720 hc         1 0XD       0.045700
     16 H7           4.1590     0.8840     1.4720 hc         1 0XD       0.045700
     17 H10          2.1890     0.0000     3.9880 hn         1 0XD       0.272400
@<TRIPOS>BOND
     1     1     2 1   
     2     1    10 1   
     3     1    11 1   
     4     1    12 1   
     5     2     3 1   
     6     3     4 1   
     7     3    13 1   
     8     3    14 1   
     9     4     5 1   
    10     4    15 1   
    11     4    16 1   
    12     5     6 1   
    13     5     9 2   
    14     6     7 1   
    15     6     8 1   
    16     9    17 1   
@<TRIPOS>SUBSTRUCTURE
     1 0XD         1 TEMP              0 ****  ****    0 ROOT
