@<TRIPOS>MOLECULE
0XE
   49    52     1     0     0
SMALL
bcc


@<TRIPOS>ATOM
      1 C1           0.0000     0.0000     0.0000 ca         1 0XE      -0.108500
      2 C2           1.3830     0.0000     0.0000 ca         1 0XE      -0.090000
      3 C3           2.0810     0.0000     1.1950 ca         1 0XE      -0.108500
      4 C4           1.4010     0.0000     2.3960 ca         1 0XE      -0.068500
      5 C5           0.0040    -0.0010     2.4020 ca         1 0XE      -0.072800
      6 C6          -0.6940    -0.0000     1.1930 ca         1 0XE      -0.068500
      7 C7          -0.7310    -0.0010     3.6830 cc         1 0XE       0.225900
      8 C8          -2.0900    -0.0070     3.6560 cd         1 0XE      -0.360200
      9 C9          -2.8130    -0.0070     4.8730 c          1 0XE       0.657900
     10 O9          -4.0330    -0.0140     4.8870 o          1 0XE      -0.595100
     11 O12         -0.0320    -0.0010     4.8280 os         1 0XE      -0.167200
     12 C11         -0.6300    -0.0020     6.0390 ca         1 0XE       0.209100
     13 C10         -2.0340    -0.0030     6.1230 ca         1 0XE      -0.311600
     14 C17         -2.6660    -0.0020     7.3730 ca         1 0XE       0.211100
     15 O17         -4.0210    -0.0080     7.4540 oh         1 0XE      -0.472100
     16 C16         -1.8970     0.0040     8.5250 ca         1 0XE      -0.015900
     17 O16         -2.5010     0.0030     9.7450 oh         1 0XE      -0.487100
     18 C14          0.1240    -0.0020     7.2020 ca         1 0XE      -0.229000
     19 C15         -0.5060     0.0080     8.4370 ca         1 0XE       0.222100
     20 O18          0.2410     0.0140     9.5730 os         1 0XE      -0.280900
     21 C18          1.6600     0.0190     9.4150 c3         1 0XE       0.352900
     22 O22          2.0760    -1.2020     8.8000 os         1 0XE      -0.382600
     23 C22          3.4850    -1.2900     8.5710 c3         1 0XE       0.065100
     24 C23          3.8030    -2.6000     7.8980 c          1 0XE       0.976600
     25 O24          2.9310    -3.4160     7.7210 o          1 0XE      -0.870300
     26 O23          5.0570    -2.8590     7.4940 o          1 0XE      -0.870300
     27 C19          2.3260     0.1500    10.7880 c3         1 0XE       0.145100
     28 O19          1.9560     1.3970    11.3800 oh         1 0XE      -0.589800
     29 C20          3.8470     0.0940    10.6160 c3         1 0XE       0.140100
     30 O20          4.4740     0.1410    11.8990 oh         1 0XE      -0.591800
     31 C21          4.2230    -1.2120     9.9110 c3         1 0XE       0.163100
     32 O21          5.6330    -1.2420     9.6800 oh         1 0XE      -0.546800
     33 H1          -0.5400     0.0000    -0.9390 ha         1 0XE       0.104500
     34 H2           1.9220    -0.0000    -0.9400 ha         1 0XE       0.098000
     35 H3           3.1640     0.0000     1.1890 ha         1 0XE       0.104500
     36 H4           1.9480     0.0000     3.3300 ha         1 0XE       0.122500
     37 H5          -1.7770    -0.0000     1.1900 ha         1 0XE       0.122500
     38 H6          -2.6130    -0.1390     2.7160 ha         1 0XE       0.143000
     39 H8          -4.3240     0.8470     7.7090 ho         1 0XE       0.406000
     40 H9          -2.7160    -0.8820     9.9890 ho         1 0XE       0.402000
     41 H10          1.2050     0.0020     7.1460 ha         1 0XE       0.167000
     42 H11          1.9560     0.8540     8.7910 h2         1 0XE       0.004700
     43 H12          3.7980    -0.4680     7.9390 h1         1 0XE       0.011700
     44 H14          2.0050    -0.6670    11.4230 h1         1 0XE       0.029700
     45 H15          1.5380     1.2380    12.2100 ho         1 0XE       0.392000
     46 H16          4.1730     0.9350    10.0160 h1         1 0XE       0.016700
     47 H17          5.0190     0.9090    11.9550 ho         1 0XE       0.388000
     48 H18          3.9350    -2.0530    10.5310 h1         1 0XE       0.022700
     49 H19          6.0410    -1.8210    10.3020 ho         1 0XE       0.384000
@<TRIPOS>BOND
     1     1     2 ar  
     2     1     6 ar  
     3     1    33 1   
     4     2     3 ar  
     5     2    34 1   
     6     3     4 ar  
     7     3    35 1   
     8     4     5 ar  
     9     4    36 1   
    10     5     6 ar  
    11     5     7 1   
    12     6    37 1   
    13     7     8 2   
    14     7    11 1   
    15     8     9 1   
    16     8    38 1   
    17     9    10 2   
    18     9    13 1   
    19    11    12 1   
    20    12    13 ar  
    21    12    18 ar  
    22    13    14 ar  
    23    14    15 1   
    24    14    16 ar  
    25    15    39 1   
    26    16    17 1   
    27    16    19 ar  
    28    17    40 1   
    29    18    19 ar  
    30    18    41 1   
    31    19    20 1   
    32    20    21 1   
    33    21    22 1   
    34    21    27 1   
    35    21    42 1   
    36    22    23 1   
    37    23    24 1   
    38    23    31 1   
    39    23    43 1   
    40    24    25 1   
    41    24    26 1   
    42    27    28 1   
    43    27    29 1   
    44    27    44 1   
    45    28    45 1   
    46    29    30 1   
    47    29    31 1   
    48    29    46 1   
    49    30    47 1   
    50    31    32 1   
    51    31    48 1   
    52    32    49 1   
@<TRIPOS>SUBSTRUCTURE
     1 0XE         1 TEMP              0 ****  ****    0 ROOT
