@<TRIPOS>MOLECULE
0XE
   49    52     1     0     0
SMALL
bcc


@<TRIPOS>ATOM
      1 C1          -1.5130    -0.8530     0.0500 ca         1 0XE      -0.143000
      2 C2          -0.1640    -0.8230    -0.3030 ca         1 0XE      -0.119000
      3 C3           0.8070    -0.6160     0.6770 ca         1 0XE      -0.143000
      4 C4           0.4340    -0.4430     2.0080 ca         1 0XE      -0.089500
      5 C5          -0.9200    -0.4820     2.3700 ca         1 0XE      -0.077800
      6 C6          -1.8950    -0.6830     1.3790 ca         1 0XE      -0.089500
      7 C7          -1.3170    -0.3130     3.7700 cc         1 0XE       0.199900
      8 C8          -0.5070    -0.4060     4.8490 cd         1 0XE      -0.337200
      9 C9          -0.9950    -0.2180     6.2170 c          1 0XE       0.600900
     10 O9          -0.2280    -0.2600     7.1900 o          1 0XE      -0.550100
     11 O12         -2.6700    -0.0390     3.8670 os         1 0XE      -0.203200
     12 C11         -3.2140     0.0770     5.1370 ca         1 0XE       0.147100
     13 C10         -2.4410     0.0120     6.3110 ca         1 0XE      -0.236600
     14 C17         -3.1150     0.1640     7.5430 ca         1 0XE       0.181100
     15 O17         -2.3750     0.1070     8.6950 oh         1 0XE      -0.464100
     16 C16         -4.5080     0.3580     7.5680 ca         1 0XE      -0.021900
     17 O16         -5.0960     0.5110     8.8090 oh         1 0XE      -0.527100
     18 C14         -4.6050     0.2720     5.1330 ca         1 0XE      -0.164000
     19 C15         -5.2430     0.4130     6.3640 ca         1 0XE       0.130100
     20 O18         -6.5900     0.6990     6.5080 os         1 0XE      -0.339900
     21 C18         -7.4890    -0.2130     5.8690 c3         1 0XE       0.337900
     22 O22         -7.2590     0.0440     4.5020 os         1 0XE      -0.399600
     23 C22         -8.1270    -0.6830     3.6350 c3         1 0XE      -0.023900
     24 C23         -7.6410    -0.4000     2.1790 c          1 0XE       0.938600
     25 O24         -6.4100    -0.2620     1.9860 o          1 0XE      -0.815300
     26 O23         -8.5410    -0.3810     1.2910 o          1 0XE      -0.815300
     27 C19         -8.9120     0.2050     6.2930 c3         1 0XE       0.118100
     28 O19         -9.0890    -0.2190     7.6350 oh         1 0XE      -0.609800
     29 C20         -9.9290    -0.4830     5.3670 c3         1 0XE       0.099100
     30 O20        -11.2030     0.0500     5.6990 oh         1 0XE      -0.628800
     31 C21         -9.5700    -0.2370     3.8910 c3         1 0XE       0.115100
     32 O21        -10.5080    -0.9800     3.1340 oh         1 0XE      -0.652800
     33 H1          -2.2850    -1.0080    -0.7190 ha         1 0XE       0.135000
     34 H2           0.1340    -0.9580    -1.3530 ha         1 0XE       0.125000
     35 H3           1.8710    -0.5860     0.4010 ha         1 0XE       0.135000
     36 H4           1.2070    -0.2690     2.7720 ha         1 0XE       0.160500
     37 H5          -2.9670    -0.6980     1.6530 ha         1 0XE       0.160500
     38 H6           0.5630    -0.6350     4.7440 ha         1 0XE       0.155000
     39 H8          -2.9830     0.2210     9.4430 ho         1 0XE       0.430000
     40 H9          -6.0580     0.5320     8.6700 ho         1 0XE       0.451000
     41 H10         -5.1640     0.2970     4.1730 ha         1 0XE       0.240000
     42 H11         -7.2610    -1.2760     6.1480 h2         1 0XE       0.055700
     43 H12         -8.0280    -1.7860     3.8290 h1         1 0XE       0.038700
     44 H14         -9.0200     1.3220     6.2290 h1         1 0XE       0.073700
     45 H15        -10.0250    -0.0860     7.8350 ho         1 0XE       0.416000
     46 H16         -9.9440    -1.5900     5.5740 h1         1 0XE       0.051700
     47 H17        -11.7770    -0.1270     4.9420 ho         1 0XE       0.428000
     48 H18         -9.6750     0.8560     3.6470 h1         1 0XE       0.058700
     49 H19        -10.2030    -0.9480     2.2080 ho         1 0XE       0.468000
@<TRIPOS>BOND
     1     1     2 ar  
     2     1     6 ar  
     3     1    33 1   
     4     2     3 ar  
     5     2    34 1   
     6     3     4 ar  
     7     3    35 1   
     8     4     5 ar  
     9     4    36 1   
    10     5     6 ar  
    11     5     7 1   
    12     6    37 1   
    13     7     8 2   
    14     7    11 1   
    15     8     9 1   
    16     8    38 1   
    17     9    10 2   
    18     9    13 1   
    19    11    12 1   
    20    12    13 ar  
    21    12    18 ar  
    22    13    14 ar  
    23    14    15 1   
    24    14    16 ar  
    25    15    39 1   
    26    16    17 1   
    27    16    19 ar  
    28    17    40 1   
    29    18    19 ar  
    30    18    41 1   
    31    19    20 1   
    32    20    21 1   
    33    21    22 1   
    34    21    27 1   
    35    21    42 1   
    36    22    23 1   
    37    23    24 1   
    38    23    31 1   
    39    23    43 1   
    40    24    25 1   
    41    24    26 1   
    42    27    28 1   
    43    27    29 1   
    44    27    44 1   
    45    28    45 1   
    46    29    30 1   
    47    29    31 1   
    48    29    46 1   
    49    30    47 1   
    50    31    32 1   
    51    31    48 1   
    52    32    49 1   
@<TRIPOS>SUBSTRUCTURE
     1 0XE         1 TEMP              0 ****  ****    0 ROOT
