@<TRIPOS>MOLECULE
molecule
   49    52     1     0     0
SMALL
bcc


@<TRIPOS>ATOM
      1 C1           0.0000     0.0000     0.0000 ca         1 0XE      -0.136500
      2 C2           1.3830     0.0000     0.0000 ca         1 0XE      -0.115000
      3 C3           2.0810     0.0000     1.1950 ca         1 0XE      -0.136500
      4 C4           1.4010     0.0000     2.3960 ca         1 0XE      -0.090500
      5 C5           0.0040    -0.0010     2.4020 ca         1 0XE      -0.066800
      6 C6          -0.6940    -0.0000     1.1930 ca         1 0XE      -0.090500
      7 C7          -0.7310    -0.0010     3.6830 cc         1 0XE       0.211900
      8 C8          -2.0900    -0.0070     3.6560 cd         1 0XE      -0.349200
      9 C9          -2.8130    -0.0070     4.8730 c          1 0XE       0.593900
     10 O9          -4.0330    -0.0140     4.8870 o          1 0XE      -0.555100
     11 O12         -0.0320    -0.0010     4.8280 os         1 0XE      -0.201200
     12 C11         -0.6300    -0.0020     6.0390 ca         1 0XE       0.200100
     13 C10         -2.0340    -0.0030     6.1230 ca         1 0XE      -0.287600
     14 C17         -2.6660    -0.0020     7.3730 ca         1 0XE       0.189100
     15 O17         -4.0210    -0.0080     7.4540 oh         1 0XE      -0.481100
     16 C16         -1.8970     0.0040     8.5250 ca         1 0XE      -0.002900
     17 O16         -2.5010     0.0030     9.7450 oh         1 0XE      -0.488100
     18 C14          0.1240    -0.0020     7.2020 ca         1 0XE      -0.218000
     19 C15         -0.5060     0.0080     8.4370 ca         1 0XE       0.208100
     20 O18          0.2410     0.0140     9.5730 os         1 0XE      -0.293900
     21 C18          1.6600     0.0190     9.4150 c3         1 0XE       0.322900
     22 O22          2.0760    -1.2020     8.8000 os         1 0XE      -0.399600
     23 C22          3.4850    -1.2900     8.5710 c3         1 0XE       0.036100
     24 C23          3.8030    -2.6000     7.8980 c          1 0XE       0.898600
     25 O24          2.9310    -3.4160     7.7210 o          1 0XE      -0.810300
     26 O23          5.0570    -2.8590     7.4940 o          1 0XE      -0.810300
     27 C19          2.3260     0.1500    10.7880 c3         1 0XE       0.116100
     28 O19          1.9560     1.3970    11.3800 oh         1 0XE      -0.611800
     29 C20          3.8470     0.0940    10.6160 c3         1 0XE       0.105100
     30 O20          4.4740     0.1410    11.8990 oh         1 0XE      -0.610800
     31 C21          4.2230    -1.2120     9.9110 c3         1 0XE       0.128100
     32 O21          5.6330    -1.2420     9.6800 oh         1 0XE      -0.568800
     33 H1          -0.5400     0.0000    -0.9390 ha         1 0XE       0.133500
     34 H2           1.9220    -0.0000    -0.9400 ha         1 0XE       0.126000
     35 H3           3.1640     0.0000     1.1890 ha         1 0XE       0.133500
     36 H4           1.9480     0.0000     3.3300 ha         1 0XE       0.150500
     37 H5          -1.7770    -0.0000     1.1900 ha         1 0XE       0.150500
     38 H6          -2.6140     0.1150     2.7150 ha         1 0XE       0.160000
     39 H8          -4.3280     0.8600     7.6560 ho         1 0XE       0.415000
     40 H9          -2.7040     0.8890     9.9960 ho         1 0XE       0.398000
     41 H10          1.2050     0.0020     7.1460 ha         1 0XE       0.185000
     42 H11          1.9560     0.8540     8.7910 h2         1 0XE       0.035700
     43 H12          3.7980    -0.4680     7.9390 h1         1 0XE       0.039700
     44 H14          2.0050    -0.6670    11.4230 h1         1 0XE       0.070700
     45 H15          1.5880     1.2420    12.2340 ho         1 0XE       0.406000
     46 H16          4.1730     0.9350    10.0160 h1         1 0XE       0.049700
     47 H17          5.0230     0.9060    11.9530 ho         1 0XE       0.401000
     48 H18          3.9350    -2.0530    10.5310 h1         1 0XE       0.058700
     49 H19          6.0410    -1.8210    10.3020 ho         1 0XE       0.400000
@<TRIPOS>BOND
     1     3     2 ar  
     2     3     4 ar  
     3     2     1 ar  
     4     4     5 ar  
     5     1     6 ar  
     6     5     6 ar  
     7     5     7 1   
     8     8     7 2   
     9     8     9 1   
    10     7    11 1   
    11    10     9 2   
    12     9    13 1   
    13    11    12 1   
    14    13    12 ar  
    15    13    14 ar  
    16    12    18 ar  
    17    15    14 1   
    18    14    16 ar  
    19    18    19 ar  
    20    16    19 ar  
    21    16    17 1   
    22    19    20 1   
    23    25    24 1   
    24    24    26 1   
    25    24    23 1   
    26    20    21 1   
    27    22    23 1   
    28    22    21 1   
    29    23    31 1   
    30    21    27 1   
    31    31    32 1   
    32    31    29 1   
    33    27    28 1   
    34    27    29 1   
    35    29    30 1   
    36     1    33 1   
    37     2    34 1   
    38     3    35 1   
    39     4    36 1   
    40     6    37 1   
    41     8    38 1   
    42    15    39 1   
    43    17    40 1   
    44    18    41 1   
    45    21    42 1   
    46    23    43 1   
    47    27    44 1   
    48    28    45 1   
    49    29    46 1   
    50    30    47 1   
    51    31    48 1   
    52    32    49 1   
@<TRIPOS>SUBSTRUCTURE
     1 0XE         1 TEMP              0 ****  ****    0 ROOT
