@<TRIPOS>MOLECULE
0XG
   46    48     1     0     0
SMALL
bcc


@<TRIPOS>ATOM
      1 C1           0.1540     0.3830     1.1700 c3         1 0XG       0.086100
      2 C3           1.4260     1.3410    -0.6870 c3         1 0XG       0.086100
      3 O5           3.0500     1.0640     1.5140 o          1 0XG      -0.472100
      4 C7           2.3410    -2.4920     0.9700 ca         1 0XG      -0.008500
      5 C8           2.9150    -3.7370     1.0450 ca         1 0XG      -0.217500
      6 C9           4.3250    -3.8900     1.2830 ca         1 0XG       0.308600
      7 C10          5.0850    -2.6980     1.5090 ca         1 0XG      -0.217500
      8 C11          4.4910    -1.4620     1.4430 ca         1 0XG      -0.008500
      9 C13          6.2740    -5.3970     1.4060 ca         1 0XG       0.774900
     10 C15          7.9940    -6.4910     2.4760 ca         1 0XG       0.389200
     11 C16          8.9610    -5.9430     1.5990 ca         1 0XG      -0.112600
     12 N18          7.0940    -4.8090     0.4650 nb         1 0XG      -0.765000
     13 C20          8.8230    -3.7660    -1.3960 c3         1 0XG       0.120700
     14 C21         10.3430    -6.2220     1.7570 cc         1 0XG      -0.136100
     15 C22         11.4170    -5.6260     1.1060 cd         1 0XG      -0.024000
     16 C24         12.5240    -7.1190     2.4920 cc         1 0XG      -0.061100
     17 O28         15.0530    -6.1560     1.4030 o          1 0XG      -0.813300
     18 N2           1.2960     0.1980     0.2450 nx         1 0XG      -0.599200
     19 C4           2.5990     0.0170     1.0620 c          1 0XG       0.592700
     20 C6           3.1120    -1.3230     1.1400 ca         1 0XG      -0.315600
     21 N14          6.6730    -6.2430     2.4100 nb         1 0XG      -0.689000
     22 C17          8.4130    -5.0900     0.5740 ca         1 0XG       0.640600
     23 O19          9.3140    -4.5560    -0.3130 os         1 0XG      -0.404100
     24 C23         12.6770    -6.1440     1.5360 cd         1 0XG      -0.166600
     25 S25         10.9100    -7.3980     2.8640 ss         1 0XG      -0.138800
     26 C26         13.9930    -5.6320     0.9730 c          1 0XG       0.929200
     27 O27         13.9220    -4.7120     0.1130 o          1 0XG      -0.813300
     28 N12          4.8650    -5.1340     1.2970 nu         1 0XG      -0.683300
     29 H1           0.0560    -0.5280     1.8190 hx         1 0XG       0.100700
     30 H2          -0.7910     0.5350     0.5850 hx         1 0XG       0.100700
     31 H3           0.3470     1.2820     1.8150 hx         1 0XG       0.100700
     32 H4           1.6610     2.2720    -0.1020 hx         1 0XG       0.100700
     33 H5           2.2660     1.1350    -1.4030 hx         1 0XG       0.100700
     34 H6           0.4670     1.4800    -1.2520 hx         1 0XG       0.100700
     35 H7           1.2530    -2.4350     0.8070 ha         1 0XG       0.136500
     36 H8           2.2860    -4.6330     0.9220 ha         1 0XG       0.168000
     37 H9           6.1600    -2.7670     1.7470 ha         1 0XG       0.168000
     38 H10          5.0910    -0.5530     1.6280 ha         1 0XG       0.136500
     39 H11          8.3080    -7.1740     3.2910 h4         1 0XG       0.051100
     40 H12          9.7640    -3.5040    -1.9470 h1         1 0XG       0.052700
     41 H13          8.3150    -2.8490    -1.0150 h1         1 0XG       0.052700
     42 H14          8.1340    -4.3620    -2.0400 h1         1 0XG       0.052700
     43 H15         11.3710    -4.8370     0.3440 ha         1 0XG       0.188000
     44 H16         13.3520    -7.6550     2.9580 h4         1 0XG       0.191000
     45 H17          4.2700    -5.9340     1.2830 hn         1 0XG       0.468800
     46 H21          1.1460    -0.6540    -0.3070 hn         1 0XG       0.446800
@<TRIPOS>BOND
     1     1    18 1   
     2     1    29 1   
     3     1    30 1   
     4     1    31 1   
     5     2    18 1   
     6     2    32 1   
     7     2    33 1   
     8     2    34 1   
     9     3    19 2   
    10     4     5 ar  
    11     4    20 ar  
    12     4    35 1   
    13     5     6 ar  
    14     5    36 1   
    15     6     7 ar  
    16     6    28 1   
    17     7     8 ar  
    18     7    37 1   
    19     8    20 ar  
    20     8    38 1   
    21     9    12 ar  
    22     9    21 ar  
    23     9    28 1   
    24    10    11 ar  
    25    10    21 ar  
    26    10    39 1   
    27    11    14 1   
    28    11    22 ar  
    29    12    22 ar  
    30    13    23 1   
    31    13    40 1   
    32    13    41 1   
    33    13    42 1   
    34    14    15 2   
    35    14    25 1   
    36    15    24 1   
    37    15    43 1   
    38    16    24 2   
    39    16    25 1   
    40    16    44 1   
    41    17    26 1   
    42    18    19 1   
    43    18    46 1   
    44    19    20 1   
    45    22    23 1   
    46    24    26 1   
    47    26    27 1   
    48    28    45 1   
@<TRIPOS>SUBSTRUCTURE
     1 0XG         1 TEMP              0 ****  ****    0 ROOT
