@<TRIPOS>MOLECULE
molecule
   45    47     1     0     0
SMALL
bcc


@<TRIPOS>ATOM
      1 C1           0.0000     0.0000     0.0000 c3         1 0XG       0.095300
      2 C3           2.1970    -0.0020    -1.2690 c3         1 0XG       0.095300
      3 O5           1.5420     0.1570     2.2140 o          1 0XG      -0.606100
      4 C7           4.2110    -0.8490     2.3500 ca         1 0XG      -0.096000
      5 C8           5.5630    -1.1050     2.3500 ca         1 0XG      -0.162500
      6 C9           6.3040    -0.9380     1.1840 ca         1 0XG       0.196600
      7 C10          5.6810    -0.5120     0.0140 ca         1 0XG      -0.162500
      8 C11          4.3290    -0.2560     0.0070 ca         1 0XG      -0.096000
      9 C13          8.1820    -2.2180     1.9740 ca         1 0XG       0.943900
     10 C15          7.7850    -3.9980     3.3820 ca         1 0XG       0.511200
     11 C16          9.1610    -4.1970     3.5020 ca         1 0XG      -0.265600
     12 N18          9.4960    -2.3750     2.0500 nb         1 0XG      -0.875000
     13 C20         12.1680    -2.5760     2.1240 c3         1 0XG       0.134700
     14 C21          9.7010    -5.2810     4.3510 cc         1 0XG      -0.047100
     15 C22          9.3420    -5.5130     5.6240 cd         1 0XG      -0.083000
     16 C24         10.8830    -7.2200     5.3690 cc         1 0XG      -0.057100
     17 O28          8.9700    -6.4400     8.2850 o          1 0XG      -0.836800
     18 N2           1.4650     0.0000     0.0000 n          1 0XG      -0.499800
     19 C4           2.1400     0.0000     1.1670 c          1 0XG       0.680700
     20 C6           3.5820    -0.4220     1.1770 ca         1 0XG      -0.173600
     21 N14          7.3420    -3.0090     2.6240 nb         1 0XG      -0.812000
     22 C17         10.0220    -3.3390     2.7930 ca         1 0XG       0.714600
     23 O19         11.3650    -3.4890     2.8760 os         1 0XG      -0.407100
     24 C23         10.0020    -6.6010     6.2030 cd         1 0XG      -0.142600
     25 S25         10.8990    -6.4590     3.8420 ss         1 0XG      -0.201800
     26 C26          9.7700    -7.0330     7.5880 c          1 0XG       0.898200
     27 O27         10.4450    -8.0890     8.0870 o          1 0XG      -0.836800
     28 H1          -0.3610    -0.8230     0.6050 h1         1 0XG       0.042367
     29 H2          -0.3610    -0.1130    -1.0150 h1         1 0XG       0.042367
     30 H3          -0.3610     0.9360     0.4100 h1         1 0XG       0.042367
     31 H4           2.9030    -0.8240    -1.2780 h1         1 0XG       0.042367
     32 H5           1.4990    -0.1170    -2.0890 h1         1 0XG       0.042367
     33 H6           2.7320     0.9340    -1.3790 h1         1 0XG       0.042367
     34 H7           3.6350    -0.9790     3.2580 ha         1 0XG       0.159000
     35 H8           6.0510    -1.4360     3.2580 ha         1 0XG       0.148000
     36 H9           6.2610    -0.3840    -0.8920 ha         1 0XG       0.148000
     37 H10          3.8440     0.0750    -0.9030 ha         1 0XG       0.159000
     38 H11          7.0890    -4.6400     3.9100 h4         1 0XG       0.051100
     39 H12         11.9260    -2.6640     1.0720 h1         1 0XG       0.042367
     40 H13         13.2150    -2.8080     2.2750 h1         1 0XG       0.042367
     41 H14         11.9710    -1.5640     2.4570 h1         1 0XG       0.042367
     42 H15          8.6110    -4.9140     6.1530 ha         1 0XG       0.159000
     43 H16         11.4860    -8.0790     5.6360 h4         1 0XG       0.188000
     44 H17          8.2890    -0.6370     0.6340 hn         1 0XG       0.459800
     45 N12          7.6720    -1.1980     1.1870 nu         1 0XG      -0.762300
@<TRIPOS>BOND
     1     5     4 ar
     2     5     6 ar
     3    21    10 ar
     4    21     9 ar
     5    45     9 1
     6    45     6 1
     7    10    11 ar
     8     4    20 ar
     9    25    16 1
    10    25    14 1
    11     1    18 1
    12     9    12 ar
    13     6     7 ar
    14    11    14 1
    15    11    22 ar
    16    18    19 1
    17    18     2 1
    18    16    24 2
    19    20    19 1
    20    20     8 ar
    21    12    22 ar
    22    14    15 2
    23     7     8 ar
    24    22    23 1
    25    19     3 2
    26    24    15 1
    27    24    26 1
    28    23    13 1
    29    17    26 1
    30    26    27 1
    31     1    28 1
    32     1    29 1
    33     1    30 1
    34     2    31 1
    35     2    32 1
    36     2    33 1
    37     4    34 1
    38     5    35 1
    39     7    36 1
    40     8    37 1
    41    10    38 1
    42    13    39 1
    43    13    40 1
    44    13    41 1
    45    15    42 1
    46    16    43 1
    47    45    44 1
@<TRIPOS>SUBSTRUCTURE
     1 0XG         1 TEMP              0 ****  ****    0 ROOT
