@<TRIPOS>MOLECULE
0XH
   36    38     1     0     0
SMALL
bcc


@<TRIPOS>ATOM
      1 C1          -0.2650     0.2170     0.0830 ca         1 0XH      -0.096000
      2 C2           1.1020     0.4850     0.0490 ca         1 0XH      -0.129000
      3 C3           1.8510     0.4180     1.2290 ca         1 0XH       0.052400
      4 C4           1.2330     0.0880     2.4430 ca         1 0XH      -0.143600
      5 C5          -0.1410    -0.1890     2.4590 ca         1 0XH       0.052400
      6 C6          -0.8910    -0.1220     1.2800 ca         1 0XH      -0.129000
      7 Cl1         -0.9120    -0.6120     3.9100 cl         1 0XH      -0.060400
      8 C8           2.0240     0.0800     3.7190 c          1 0XH       0.691700
      9 O9           2.1470     1.1020     4.4100 o          1 0XH      -0.550100
     10 N10          2.5860    -1.1500     4.0380 ns         1 0XH      -0.461100
     11 C11          3.3740    -1.4520     5.1550 ca         1 0XH       0.126600
     12 C12          3.7440    -0.5050     6.1300 ca         1 0XH      -0.301300
     13 C13          4.5410    -0.9410     7.2000 ca         1 0XH       0.444200
     14 N14          4.9880    -2.1890     7.3730 nb         1 0XH      -0.730000
     15 C15          4.6290    -3.1220     6.4250 ca         1 0XH       0.547200
     16 C16          3.8240    -2.7890     5.3110 ca         1 0XH      -0.319300
     17 N17          5.0870    -4.4400     6.6510 ns         1 0XH      -0.541400
     18 C18          5.1190    -5.4690     5.7220 c          1 0XH       0.701100
     19 O19          4.6710    -5.3730     4.5640 o          1 0XH      -0.586100
     20 C20          5.6710    -6.7790     6.2050 cx         1 0XH      -0.233700
     21 C22          6.9950    -7.2550     5.6710 cx         1 0XH      -0.120400
     22 C23          6.8610    -6.9230     7.1400 cx         1 0XH       0.120600
     23 F1           7.4940    -5.8270     7.6480 f          1 0XH      -0.205300
     24 Cl2          3.5160     0.7370     1.1730 cl         1 0XH      -0.060400
     25 H1          -0.8550     0.2730    -0.8450 ha         1 0XH       0.148000
     26 H2           1.5910     0.7510    -0.9010 ha         1 0XH       0.157000
     27 H3          -1.9710    -0.3350     1.3010 ha         1 0XH       0.157000
     28 H4           2.4200    -1.9050     3.4080 hn         1 0XH       0.330500
     29 H5           3.4290     0.5470     6.0740 ha         1 0XH       0.183000
     30 H6           4.8500    -0.2230     7.9840 h4         1 0XH       0.026100
     31 H7           3.5530    -3.5570     4.5690 ha         1 0XH       0.177000
     32 H8           5.5830    -4.5880     7.5070 hn         1 0XH       0.342500
     33 H21          4.8460    -7.5140     6.3200 hc         1 0XH       0.118700
     34 H9           7.5750    -6.5770     5.0190 hc         1 0XH       0.095200
     35 H10          7.1000    -8.3130     5.3730 hc         1 0XH       0.095200
     36 H24          6.8370    -7.7480     7.8850 h1         1 0XH       0.099700
@<TRIPOS>BOND
     1     1     2 ar  
     2     1     6 ar  
     3     1    25 1   
     4     2     3 ar  
     5     2    26 1   
     6     3     4 ar  
     7     3    24 1   
     8     4     5 ar  
     9     4     8 1   
    10     5     6 ar  
    11     5     7 1   
    12     6    27 1   
    13     8     9 2   
    14     8    10 1   
    15    10    11 1   
    16    10    28 1   
    17    11    12 ar  
    18    11    16 ar  
    19    12    13 ar  
    20    12    29 1   
    21    13    14 ar  
    22    13    30 1   
    23    14    15 ar  
    24    15    16 ar  
    25    15    17 1   
    26    16    31 1   
    27    17    18 1   
    28    17    32 1   
    29    18    19 2   
    30    18    20 1   
    31    20    21 1   
    32    20    22 1   
    33    20    33 1   
    34    21    22 1   
    35    21    34 1   
    36    21    35 1   
    37    22    23 1   
    38    22    36 1   
@<TRIPOS>SUBSTRUCTURE
     1 0XH         1 TEMP              0 ****  ****    0 ROOT
