@<TRIPOS>MOLECULE
0XH
   36    38     1     0     0
SMALL
bcc


@<TRIPOS>ATOM
      1 C1           0.0000     0.0000     0.0000 ca         1 0XH      -0.063000
      2 C2           1.3830     0.0000     0.0000 ca         1 0XH      -0.102000
      3 C3           2.0780     0.0000     1.1940 ca         1 0XH      -0.001600
      4 C4           1.3790    -0.0010     2.4040 ca         1 0XH      -0.150600
      5 C5          -0.0190    -0.0000     2.3960 ca         1 0XH      -0.001600
      6 C6          -0.6990     0.0000     1.1940 ca         1 0XH      -0.102000
      7 Cl1         -0.8980    -0.0010     3.8930 cl         1 0XH       0.001600
      8 C8           2.1130    -0.0020     3.6850 c          1 0XH       0.583700
      9 O9           2.4160     1.0510     4.2120 o          1 0XH      -0.609100
     10 N10          2.4480    -1.1690     4.2690 ns         1 0XH      -0.008100
     11 C11          3.2430    -1.1740     5.4150 ca         1 0XH      -0.035400
     12 C12          3.1780    -2.2280     6.3260 ca         1 0XH      -0.294300
     13 C13          3.9800    -2.1980     7.4480 ca         1 0XH       0.454200
     14 N14          4.8020    -1.1900     7.6680 nb         1 0XH      -0.571000
     15 C15          4.8950    -0.1690     6.8280 ca         1 0XH       0.383200
     16 C16          4.1250    -0.1290     5.6750 ca         1 0XH      -0.287300
     17 N17          5.7820     0.8710     7.1020 ns         1 0XH      -0.104400
     18 C18          6.6060     0.7910     8.1670 c          1 0XH       0.586100
     19 O19          6.5120    -0.1400     8.9370 o          1 0XH      -0.560100
     20 C20          7.6430     1.8600     8.3980 cx         1 0XH      -0.229700
     21 C22          8.5480     1.7110     9.6220 cx         1 0XH      -0.055400
     22 C23          9.1110     1.4700     8.2190 cx         1 0XH       0.138600
     23 F1           9.3880     0.1480     7.8530 f          1 0XH      -0.193300
     24 Cl2          3.8140    -0.0010     1.1910 cl         1 0XH       0.001600
     25 H1          -0.5390     0.0000    -0.9400 ha         1 0XH       0.111000
     26 H2           1.9230     0.0000    -0.9390 ha         1 0XH       0.121000
     27 H3          -1.7820     0.0000     1.1850 ha         1 0XH       0.121000
     28 H4           2.1420    -2.0340     3.8690 hn         1 0XH       0.173500
     29 H5           2.5060    -3.0600     6.1550 ha         1 0XH       0.116000
     30 H6           3.9340    -3.0140     8.1590 h4         1 0XH      -0.018900
     31 H7           4.2030     0.7070     4.9910 ha         1 0XH       0.161000
     32 H8           5.8340     1.6590     6.4880 hn         1 0XH       0.172500
     33 H21          7.4090     2.8830     8.1280 hc         1 0XH       0.066700
     34 H9           8.3850     0.8220    10.2190 hc         1 0XH       0.066700
     35 H10          8.8520     2.6380    10.0940 hc         1 0XH       0.066700
     36 H24          9.7480     2.2620     7.8430 h1         1 0XH       0.063700
@<TRIPOS>BOND
     1     1     2 ar  
     2     1     6 ar  
     3     1    25 1   
     4     2     3 ar  
     5     2    26 1   
     6     3     4 ar  
     7     3    24 1   
     8     4     5 ar  
     9     4     8 1   
    10     5     6 ar  
    11     5     7 1   
    12     6    27 1   
    13     8     9 2   
    14     8    10 1   
    15    10    11 1   
    16    10    28 1   
    17    11    12 ar  
    18    11    16 ar  
    19    12    13 ar  
    20    12    29 1   
    21    13    14 ar  
    22    13    30 1   
    23    14    15 ar  
    24    15    16 ar  
    25    15    17 1   
    26    16    31 1   
    27    17    18 1   
    28    17    32 1   
    29    18    19 2   
    30    18    20 1   
    31    20    21 1   
    32    20    22 1   
    33    20    33 1   
    34    21    22 1   
    35    21    34 1   
    36    21    35 1   
    37    22    23 1   
    38    22    36 1   
@<TRIPOS>SUBSTRUCTURE
     1 0XH         1 TEMP              0 ****  ****    0 ROOT
