@<TRIPOS>MOLECULE
molecule
   36    38     1     0     0
SMALL
bcc


@<TRIPOS>ATOM
      1 C1           0.0000     0.0000     0.0000 ca         1 0XH      -0.095000
      2 C2           1.3830     0.0000     0.0000 ca         1 0XH      -0.124000
      3 C3           2.0780     0.0000     1.1940 ca         1 0XH       0.061900
      4 C4           1.3790    -0.0010     2.4040 ca         1 0XH      -0.136600
      5 C5          -0.0190    -0.0000     2.3960 ca         1 0XH       0.061900
      6 C6          -0.6990     0.0000     1.1940 ca         1 0XH      -0.124000
      7 Cl1         -0.8980    -0.0010     3.8930 cl         1 0XH      -0.076400
      8 C8           2.1130    -0.0020     3.6850 c          1 0XH       0.680700
      9 O9           2.4160     1.0510     4.2120 o          1 0XH      -0.563100
     10 N10          2.4480    -1.1690     4.2690 ns         1 0XH      -0.458100
     11 C11          3.2430    -1.1740     5.4150 ca         1 0XH       0.117600
     12 C12          3.1780    -2.2280     6.3260 ca         1 0XH      -0.329300
     13 C13          3.9800    -2.1980     7.4480 ca         1 0XH       0.472200
     14 N14          4.8020    -1.1900     7.6680 nb         1 0XH      -0.698000
     15 C15          4.8950    -0.1690     6.8280 ca         1 0XH       0.574200
     16 C16          4.1250    -0.1290     5.6750 ca         1 0XH      -0.309300
     17 N17          5.7820     0.8710     7.1020 ns         1 0XH      -0.545400
     18 C18          6.6060     0.7910     8.1670 c          1 0XH       0.684100
     19 O19          6.5120    -0.1400     8.9370 o          1 0XH      -0.519100
     20 C20          7.6430     1.8600     8.3980 cx         1 0XH      -0.251700
     21 C22          8.5480     1.7110     9.6220 cx         1 0XH      -0.113400
     22 C23          9.1110     1.4700     8.2190 cx         1 0XH       0.120600
     23 F1           9.3880     0.1480     7.8530 f          1 0XH      -0.198300
     24 Cl2          3.8140    -0.0010     1.1910 cl         1 0XH      -0.076400
     25 H1          -0.5390     0.0000    -0.9400 ha         1 0XH       0.148000
     26 H2           1.9230     0.0000    -0.9390 ha         1 0XH       0.154000
     27 H3          -1.7820     0.0000     1.1850 ha         1 0XH       0.154000
     28 H4           2.1420    -2.0340     3.8690 hn         1 0XH       0.333500
     29 H5           2.5060    -3.0600     6.1550 ha         1 0XH       0.137000
     30 H6           3.9340    -3.0140     8.1590 h4         1 0XH       0.030100
     31 H7           4.2030     0.7070     4.9910 ha         1 0XH       0.172000
     32 H8           5.8340     1.6590     6.4880 hn         1 0XH       0.333500
     33 H21          7.4090     2.8830     8.1280 hc         1 0XH       0.092700
     34 H9           8.3850     0.8220    10.2190 hc         1 0XH       0.099200
     35 H10          8.8520     2.6380    10.0940 hc         1 0XH       0.099200
     36 H24          9.7480     2.2620     7.8430 h1         1 0XH       0.096700
@<TRIPOS>BOND
     1    21    22 1
     2    21    20 1
     3    22    20 1
     4    22    23 1
     5    20    18 1
     6    18    19 2
     7    18    17 1
     8    17    15 1
     9    15    16 ar
    10    15    14 ar
    11    16    11 ar
    12    14    13 ar
    13    10    11 1
    14    10     8 1
    15     1     2 ar
    16     1     6 ar
    17    11    12 ar
    18     2     3 ar
    19     6     5 ar
    20     3    24 1
    21     3     4 ar
    22     5     4 ar
    23     5     7 1
    24     4     8 1
    25     8     9 2
    26    13    12 ar
    27     1    25 1
    28     2    26 1
    29     6    27 1
    30    10    28 1
    31    12    29 1
    32    13    30 1
    33    16    31 1
    34    17    32 1
    35    20    33 1
    36    21    34 1
    37    21    35 1
    38    22    36 1
@<TRIPOS>SUBSTRUCTURE
     1 0XH         1 TEMP              0 ****  ****    0 ROOT
