@<TRIPOS>MOLECULE
0XJ
   57    61     1     0     0
SMALL
bcc


@<TRIPOS>ATOM
      1 C8           0.0000     0.0000     0.0000 c3         1 0XJ      -0.240000
      2 C5          -2.5680     1.0480    -0.6580 c2         1 0XJ      -0.074000
      3 C6          -2.0490    -0.1530    -1.4260 c3         1 0XJ      -0.236000
      4 C2          -3.4320     3.3400     0.8030 c2         1 0XJ      -0.191000
      5 C4          -3.4900     1.8180    -1.2170 c2         1 0XJ      -0.143000
      6 C17          3.4280    -0.3620     1.4070 c2         1 0XJ       0.298000
      7 C13          1.9740     0.0000     1.4840 c3         1 0XJ      -0.132000
      8 C18          1.2140    -1.0800     2.2570 c3         1 0XJ      -0.131000
      9 C12          1.6370     1.3630     2.0570 c3         1 0XJ      -0.078000
     10 C11          0.0860     1.4880     2.0500 c3         1 0XJ      -0.130000
     11 C16          3.5760    -1.2410     0.1690 c3         1 0XJ      -0.160000
     12 C15          2.1810    -1.2840    -0.5140 c3         1 0XJ      -0.099000
     13 C14          1.5180     0.0000     0.0000 c3         1 0XJ      -0.077000
     14 C9          -0.4800     1.3110     0.6440 c3         1 0XJ      -0.086000
     15 C7          -0.5190    -0.0880    -1.4360 DU         1 0XJ      -0.001000
     16 C10         -2.0100     1.3020     0.7110 c3         1 0XJ       0.022000
     17 C19         -2.4290     0.1380     1.6110 c3         1 0XJ      -0.163000
     18 C1          -2.5180     2.5510     1.3450 c2         1 0XJ      -0.084000
     19 C3          -4.0030     3.0040    -0.5120 c2         1 0XJ       0.325000
     20 O1          -4.8780     3.6910    -1.0050 o          1 0XJ      -0.307000
     21 O           -2.4780    -1.3580    -0.7870 os         1 0XJ      -0.251000
     22 C20         -3.7360    -1.8490    -1.2560 c3         1 0XJ       0.209000
     23 C21         -4.0800    -3.0850    -0.5350 c1         1 0XJ      -0.194000
     24 C22         -4.3560    -4.0600     0.0580 c1         1 0XJ      -0.132000
     25 C23         -4.6590    -5.4830     0.1240 c3         1 0XJ       0.019000
     26 C24         -4.0160    -6.4230    -0.7350 c3         1 0XJ      -0.129000
     27 H1          -0.3360    -0.8630     0.5630 hc         1 0XJ       0.115000
     28 H2          -1.4310    -0.4250    -0.5800 DU         1 0XJ       0.249000
     29 H3          -3.7900     4.2070     1.3450 ha         1 0XJ       0.125000
     30 H4          -3.9150     1.5560    -2.1790 ha         1 0XJ       0.137000
     31 H5           0.2350    -1.2170     1.8140 hc         1 0XJ       0.061333
     32 H6           1.1020    -0.7740     3.2900 hc         1 0XJ       0.061333
     33 H7           1.7600    -2.0150     2.2180 hc         1 0XJ       0.061333
     34 H8           2.0070     1.4380     3.0720 hc         1 0XJ       0.067000
     35 H9           2.0760     2.1450     1.4500 hc         1 0XJ       0.067000
     36 H10         -0.3310     0.7270     2.6980 hc         1 0XJ       0.072000
     37 H11         -0.1870     2.4700     2.4170 hc         1 0XJ       0.072000
     38 H12          3.8510    -2.2440     0.4730 hc         1 0XJ       0.081000
     39 H13          4.3230    -0.8310    -0.5000 hc         1 0XJ       0.081000
     40 H14          1.6270    -2.1610    -0.2020 hc         1 0XJ       0.066500
     41 H15          2.2830    -1.2400    -1.5910 hc         1 0XJ       0.066500
     42 H16          1.8980     0.8710    -0.5210 hc         1 0XJ       0.087000
     43 H17          0.1660     1.8700    -0.0230 hc         1 0XJ       0.103000
     44 H18         -0.2480     0.9580    -1.5210 ha         1 0XJ       0.095500
     45 H19          0.0100    -0.7860    -2.0740 ha         1 0XJ       0.095500
     46 H20         -2.8830     0.5250     2.5140 hc         1 0XJ       0.071333
     47 H21         -3.1380    -0.4880     1.0820 hc         1 0XJ       0.071333
     48 H22         -1.5560    -0.4450     1.8780 hc         1 0XJ       0.071333
     49 H23         -2.1210     2.8290     2.3140 ha         1 0XJ       0.109000
     50 H24         -3.6730    -2.0470    -2.3190 h1         1 0XJ       0.051000
     51 H25         -4.4960    -1.0970    -1.0800 h1         1 0XJ       0.051000
     52 H26         -5.7180    -5.7100     0.0970 hc         1 0XJ       0.045000
     53 H27         -4.5520    -5.8390     1.1420 hc         1 0XJ       0.045000
     54 H28         -3.3790    -7.0550    -0.1270 hc         1 0XJ       0.058333
     55 H29         -4.7380    -7.0820    -1.2010 hc         1 0XJ       0.058333
     56 H30         -3.8060    -5.7200    -1.5310 hc         1 0XJ       0.058333
     57 O2           4.3020    -0.0260     2.1680 o          1 0XJ      -0.290000
@<TRIPOS>BOND
     1     1    13 1   
     2     1    14 1   
     3     1    15 1   
     4     1    27 1   
     5     2     3 1   
     6     2     5 1   
     7     2    16 1   
     8     3    15 1   
     9     3    21 1   
    10     3    28 1   
    11     4    18 1   
    12     4    19 1   
    13     4    29 1   
    14     5    19 1   
    15     5    30 1   
    16     6     7 1   
    17     6    11 1   
    18     6    57 1   
    19     7     8 1   
    20     7     9 1   
    21     7    13 1   
    22     8    31 1   
    23     8    32 1   
    24     8    33 1   
    25     9    10 1   
    26     9    34 1   
    27     9    35 1   
    28    10    14 1   
    29    10    36 1   
    30    10    37 1   
    31    11    12 1   
    32    11    38 1   
    33    11    39 1   
    34    12    13 1   
    35    12    40 1   
    36    12    41 1   
    37    13    42 1   
    38    14    16 1   
    39    14    43 1   
    40    15    28 1   
    41    15    44 1   
    42    15    45 1   
    43    16    17 1   
    44    16    18 1   
    45    17    46 1   
    46    17    47 1   
    47    17    48 1   
    48    18    49 1   
    49    19    20 1   
    50    21    22 1   
    51    22    23 1   
    52    22    50 1   
    53    22    51 1   
    54    23    24 1   
    55    24    25 1   
    56    25    26 1   
    57    25    52 1   
    58    25    53 1   
    59    26    54 1   
    60    26    55 1   
    61    26    56 1   
@<TRIPOS>SUBSTRUCTURE
     1 0XJ         1 TEMP              0 ****  ****    0 ROOT
