@<TRIPOS>MOLECULE
molecule
   57    60     1     0     0
SMALL
bcc


@<TRIPOS>ATOM
      1 C8           0.0000     0.0000     0.0000 c3         1 0XJ      -0.061700
      2 C5          -2.5680     1.0480    -0.6580 c2         1 0XJ      -0.074400
      3 C6          -2.0490    -0.1530    -1.4260 c3         1 0XJ       0.178300
      4 C2          -3.4320     3.3400     0.8030 ce         1 0XJ      -0.243200
      5 C4          -3.4900     1.8180    -1.2170 ce         1 0XJ      -0.238200
      6 C17          3.4280    -0.3620     1.4070 c          1 0XJ       0.591100
      7 C13          1.9740     0.0000     1.4840 c3         1 0XJ      -0.180000
      8 C18          1.2140    -1.0800     2.2570 c3         1 0XJ      -0.083100
      9 C12          1.6370     1.3630     2.0570 c3         1 0XJ      -0.055400
     10 C11          0.0860     1.4880     2.0500 c3         1 0XJ      -0.086400
     11 C16          3.5760    -1.2410     0.1690 c3         1 0XJ      -0.192400
     12 C15          2.1810    -1.2840    -0.5140 c3         1 0XJ      -0.076400
     13 C14          1.5180     0.0000     0.0000 c3         1 0XJ      -0.064700
     14 C9          -0.4800     1.3110     0.6440 c3         1 0XJ      -0.043700
     15 C7          -0.5190    -0.0880    -1.4360 c3         1 0XJ      -0.070400
     16 C10         -2.0100     1.3020     0.7110 c3         1 0XJ       0.002400
     17 C19         -2.4290     0.1380     1.6110 c3         1 0XJ      -0.081100
     18 C1          -2.5180     2.5510     1.3450 c2         1 0XJ      -0.099200
     19 C3          -4.0030     3.0040    -0.5120 c          1 0XJ       0.563500
     20 O1          -4.8780     3.6910    -1.0050 o          1 0XJ      -0.525100
     21 O           -2.4780    -1.3580    -0.7870 os         1 0XJ      -0.415600
     22 C20         -3.7360    -1.8490    -1.2560 c3         1 0XJ       0.222500
     23 C21         -4.0800    -3.0850    -0.5350 c1         1 0XJ      -0.144100
     24 C22         -4.3560    -4.0600     0.0580 c1         1 0XJ      -0.080100
     25 C23         -4.6590    -5.4830     0.1240 c3         1 0XJ      -0.026300
     26 C24         -4.0160    -6.4230    -0.7350 c3         1 0XJ      -0.097100
     27 H1          -0.3650    -0.8440     0.5730 hc         1 0XJ       0.084700
     28 H2          -2.4200    -0.1220    -2.4440 h1         1 0XJ       0.048700
     29 H3          -3.7900     4.2070     1.3450 ha         1 0XJ       0.153000
     30 H4          -3.8960     1.5520    -2.1860 ha         1 0XJ       0.147000
     31 H5           0.5320    -0.6110     2.9560 hc         1 0XJ       0.046700
     32 H6           0.6550    -1.6950     1.5630 hc         1 0XJ       0.046700
     33 H7           1.9190    -1.6980     2.8000 hc         1 0XJ       0.046700
     34 H8           2.0080     1.4370     3.0720 hc         1 0XJ       0.054700
     35 H9           2.0730     2.1390     1.4400 hc         1 0XJ       0.054700
     36 H10         -0.3330     0.7280     2.6980 hc         1 0XJ       0.050200
     37 H11         -0.1900     2.4680     2.4200 hc         1 0XJ       0.050200
     38 H12          3.8760    -2.2410     0.4590 hc         1 0XJ       0.071700
     39 H13          4.3050    -0.8100    -0.5060 hc         1 0XJ       0.071700
     40 H14          2.2820    -1.2580    -1.5920 hc         1 0XJ       0.053200
     41 H15          1.6250    -2.1570    -0.1930 hc         1 0XJ       0.053200
     42 H16          1.9060     0.8680    -0.5190 hc         1 0XJ       0.062700
     43 H17         -0.1600     2.1430     0.0280 hc         1 0XJ       0.056700
     44 H18         -0.1240    -0.9800    -1.9070 hc         1 0XJ       0.057700
     45 H19         -0.2000     0.7880    -1.9880 hc         1 0XJ       0.057700
     46 H20         -3.4960    -0.0230     1.5200 hc         1 0XJ       0.050033
     47 H21         -1.9020    -0.7600     1.3100 hc         1 0XJ       0.050033
     48 H22         -2.1850     0.3710     2.6400 hc         1 0XJ       0.050033
     49 H23         -2.1180     2.8280     2.3130 ha         1 0XJ       0.133000
     50 H24         -3.6690    -2.0560    -2.3170 h1         1 0XJ       0.046200
     51 H25         -4.5020    -1.1040    -1.0810 h1         1 0XJ       0.046200
     52 H26         -5.7180    -5.7100     0.0970 hc         1 0XJ       0.045200
     53 H27         -4.5520    -5.8390     1.1420 hc         1 0XJ       0.045200
     54 H28         -3.3790    -7.0550    -0.1270 hc         1 0XJ       0.051367
     55 H29         -4.7380    -7.0820    -1.2010 hc         1 0XJ       0.051367
     56 H30         -3.8060    -5.7200    -1.5310 hc         1 0XJ       0.051367
     57 O2           4.3020    -0.0260     2.1680 o          1 0XJ      -0.505100
@<TRIPOS>BOND
     1    57     6 2   
     2     9    10 1   
     3     9     7 1   
     4     8     7 1   
     5    10    14 1   
     6     7     6 1   
     7     7    13 1   
     8     6    11 1   
     9    18     4 2   
    10    18    16 1   
    11    17    16 1   
    12    14    16 1   
    13    14     1 1   
    14     4    19 1   
    15    11    12 1   
    16    16     2 1   
    17    13     1 1   
    18    13    12 1   
    19     1    15 1   
    20    19    20 2   
    21    19     5 1   
    22     2     5 2   
    23     2     3 1   
    24    15     3 1   
    25    21     3 1   
    26    21    22 1   
    27    22    23 1   
    28    23    24 3   
    29    24    25 1   
    30    25    26 1   
    31     1    27 1   
    32     3    28 1   
    33     4    29 1   
    34     5    30 1   
    35     8    31 1   
    36     8    32 1   
    37     8    33 1   
    38     9    34 1   
    39     9    35 1   
    40    10    36 1   
    41    10    37 1   
    42    11    38 1   
    43    11    39 1   
    44    12    40 1   
    45    12    41 1   
    46    13    42 1   
    47    14    43 1   
    48    15    44 1   
    49    15    45 1   
    50    17    46 1   
    51    17    47 1   
    52    17    48 1   
    53    18    49 1   
    54    22    50 1   
    55    22    51 1   
    56    25    52 1   
    57    25    53 1   
    58    26    54 1   
    59    26    55 1   
    60    26    56 1   
@<TRIPOS>SUBSTRUCTURE
     1 0XJ         1 TEMP              0 ****  ****    0 ROOT
