@<TRIPOS>MOLECULE
0XJ
   57    60     1     0     0
SMALL
bcc


@<TRIPOS>ATOM
      1 C8          -0.1150    -0.1830    -0.0040 c3         1 0XJ      -0.047700
      2 C5          -2.7580     0.8460    -0.5260 c2         1 0XJ      -0.073400
      3 C6          -2.2750    -0.3610    -1.2890 c3         1 0XJ       0.168300
      4 C2          -3.4800     3.2460     0.8100 ce         1 0XJ      -0.246200
      5 C4          -3.6740     1.6540    -1.0860 ce         1 0XJ      -0.238200
      6 C17          3.5250    -0.2060     0.9180 c          1 0XJ       0.577100
      7 C13          2.0520    -0.0210     1.2710 c3         1 0XJ      -0.153000
      8 C18          1.6930    -1.1760     2.1970 c3         1 0XJ      -0.083100
      9 C12          1.6450     1.3040     1.8830 c3         1 0XJ      -0.056400
     10 C11          0.1300     1.4150     1.9630 c3         1 0XJ      -0.076400
     11 C16          3.5980    -1.0560    -0.3360 c3         1 0XJ      -0.188400
     12 C15          2.1610    -1.2090    -0.8430 c3         1 0XJ      -0.073400
     13 C14          1.3930    -0.1050    -0.1240 c3         1 0XJ      -0.063700
     14 C9          -0.5970     1.1210     0.6540 c3         1 0XJ      -0.041700
     15 C7          -0.7510    -0.3670    -1.3690 c3         1 0XJ      -0.070400
     16 C10         -2.1370     1.1170     0.8220 c3         1 0XJ       0.011400
     17 C19         -2.6150     0.0500     1.8100 c3         1 0XJ      -0.085100
     18 C1          -2.5750     2.4420     1.3780 c2         1 0XJ      -0.099200
     19 C3          -4.1360     2.9020    -0.4600 c          1 0XJ       0.559500
     20 O1          -5.0120     3.6120    -0.9720 o          1 0XJ      -0.529100
     21 O           -2.6590    -1.5910    -0.6670 os         1 0XJ      -0.407600
     22 C20         -4.0340    -1.9230    -0.8360 c3         1 0XJ       0.209500
     23 C21         -4.3840    -2.2490    -2.1930 c1         1 0XJ      -0.188100
     24 C22         -4.7040    -2.5370    -3.3110 c1         1 0XJ      -0.100100
     25 C23         -5.0830    -2.8920    -4.6460 c3         1 0XJ      -0.006300
     26 C24         -5.9270    -1.8290    -5.3140 c3         1 0XJ      -0.091100
     27 H1          -0.4020    -1.0620     0.6370 hc         1 0XJ       0.073700
     28 H2          -2.6990    -0.3420    -2.3360 h1         1 0XJ       0.059700
     29 H3          -3.7840     4.2010     1.2670 ha         1 0XJ       0.152000
     30 H4          -4.1230     1.4270    -2.0680 ha         1 0XJ       0.151000
     31 H5           0.6140    -1.1490     2.4770 hc         1 0XJ       0.044700
     32 H6           1.9040    -2.1540     1.7010 hc         1 0XJ       0.044700
     33 H7           2.3030    -1.1060     3.1310 hc         1 0XJ       0.044700
     34 H8           2.0570     2.1440     1.2660 hc         1 0XJ       0.053200
     35 H9           2.0790     1.3990     2.9130 hc         1 0XJ       0.053200
     36 H10         -0.2440     0.7230     2.7630 hc         1 0XJ       0.044200
     37 H11         -0.1130     2.4620     2.2870 hc         1 0XJ       0.044200
     38 H12          4.2440    -0.5510    -1.0960 hc         1 0XJ       0.075700
     39 H13          4.0560    -2.0460    -0.0950 hc         1 0XJ       0.075700
     40 H14          1.7500    -2.2170    -0.5860 hc         1 0XJ       0.051700
     41 H15          2.1040    -1.0870    -1.9520 hc         1 0XJ       0.051700
     42 H16          1.6310     0.8580    -0.6680 hc         1 0XJ       0.051700
     43 H17         -0.3560     1.9630    -0.0590 hc         1 0XJ       0.054700
     44 H18         -0.4330     0.4570    -2.0590 hc         1 0XJ       0.058700
     45 H19         -0.4120    -1.3430    -1.8060 hc         1 0XJ       0.058700
     46 H20         -2.2530     0.2800     2.8400 hc         1 0XJ       0.049033
     47 H21         -3.7320     0.0250     1.8240 hc         1 0XJ       0.049033
     48 H22         -2.2460    -0.9600     1.5080 hc         1 0XJ       0.049033
     49 H23         -2.1210     2.7110     2.3470 ha         1 0XJ       0.134000
     50 H24         -4.6770    -1.0750    -0.4650 h1         1 0XJ       0.069200
     51 H25         -4.1650    -2.8230    -0.1680 h1         1 0XJ       0.069200
     52 H26         -5.6550    -3.8630    -4.6180 hc         1 0XJ       0.061200
     53 H27         -4.1530    -3.0730    -5.2550 hc         1 0XJ       0.061200
     54 H28         -6.1960    -2.1570    -6.3470 hc         1 0XJ       0.041367
     55 H29         -5.3680    -0.8650    -5.3820 hc         1 0XJ       0.041367
     56 H30         -6.8670    -1.6510    -4.7400 hc         1 0XJ       0.041367
     57 O2           4.4870     0.2370     1.5370 o          1 0XJ      -0.518100
@<TRIPOS>BOND
     1     1    13 1   
     2     1    14 1   
     3     1    15 1   
     4     1    27 1   
     5     2     3 1   
     6     2     5 2   
     7     2    16 1   
     8     3    15 1   
     9     3    21 1   
    10     3    28 1   
    11     4    18 2   
    12     4    19 1   
    13     4    29 1   
    14     5    19 1   
    15     5    30 1   
    16     6     7 1   
    17     6    11 1   
    18     6    57 2   
    19     7     8 1   
    20     7     9 1   
    21     7    13 1   
    22     8    31 1   
    23     8    32 1   
    24     8    33 1   
    25     9    10 1   
    26     9    34 1   
    27     9    35 1   
    28    10    14 1   
    29    10    36 1   
    30    10    37 1   
    31    11    12 1   
    32    11    38 1   
    33    11    39 1   
    34    12    13 1   
    35    12    40 1   
    36    12    41 1   
    37    13    42 1   
    38    14    16 1   
    39    14    43 1   
    40    15    44 1   
    41    15    45 1   
    42    16    17 1   
    43    16    18 1   
    44    17    46 1   
    45    17    47 1   
    46    17    48 1   
    47    18    49 1   
    48    19    20 2   
    49    21    22 1   
    50    22    23 1   
    51    22    50 1   
    52    22    51 1   
    53    23    24 3   
    54    24    25 1   
    55    25    26 1   
    56    25    52 1   
    57    25    53 1   
    58    26    54 1   
    59    26    55 1   
    60    26    56 1   
@<TRIPOS>SUBSTRUCTURE
     1 0XJ         1 TEMP              0 ****  ****    0 ROOT
