@<TRIPOS>MOLECULE
0XM
   28    29     1     0     0
SMALL
bcc


@<TRIPOS>ATOM
      1 NAV          0.6230     1.0590    -0.2060 nz         1 0XM      -0.851600
      2 CBF          2.1030     0.7200    -0.0660 c3         1 0XM       0.267100
      3 CBG          2.3670     0.2080     1.3170 ca         1 0XM      -0.178800
      4 CBH          2.5000    -0.1840    -1.1930 ca         1 0XM      -0.178800
      5 CBI          2.5970     0.3780    -2.4780 ca         1 0XM      -0.106750
      6 CBJ          2.9910    -0.4070    -3.5560 ca         1 0XM      -0.115250
      7 CBK          3.2990    -1.7580    -3.3630 ca         1 0XM      -0.080000
      8 CBL          3.2130    -2.3140    -2.0880 ca         1 0XM      -0.115250
      9 CBM          2.8140    -1.5320    -1.0030 ca         1 0XM      -0.106750
     10 CBN          3.3790     0.8170     2.0700 ca         1 0XM      -0.106750
     11 CBO          3.6560     0.3660     3.3610 ca         1 0XM      -0.115250
     12 CBP          2.9200    -0.6840     3.9090 ca         1 0XM      -0.080000
     13 CBQ          1.9090    -1.2920     3.1610 ca         1 0XM      -0.115250
     14 CBR          1.6350    -0.8530     1.8680 ca         1 0XM      -0.106750
     15 H12          0.4400     1.3960    -1.1550 hn         1 0XM       0.453800
     16 H26          2.6440     1.7110    -0.2010 hx         1 0XM       0.107700
     17 H27          2.3880     1.4470    -2.6350 ha         1 0XM       0.139250
     18 H28          3.0710     0.0370    -4.5610 ha         1 0XM       0.160250
     19 H29          3.6170    -2.3770    -4.2180 ha         1 0XM       0.162500
     20 H30          3.4670    -3.3750    -1.9300 ha         1 0XM       0.160250
     21 H31          2.7710    -1.9820     0.0020 ha         1 0XM       0.139250
     22 H32          3.9700     1.6450     1.6460 ha         1 0XM       0.139250
     23 H33          4.4590     0.8420     3.9460 ha         1 0XM       0.160250
     24 H34          3.1370    -1.0380     4.9300 ha         1 0XM       0.162500
     25 H35          1.3310    -2.1260     3.5910 ha         1 0XM       0.160250
     26 H36          0.8560    -1.3660     1.2830 ha         1 0XM       0.139250
     27 H2           0.3660     1.7750     0.4770 hn         1 0XM       0.453800
     28 HAV3         0.0610     0.2210    -0.0360 hn         1 0XM       0.453800
@<TRIPOS>BOND
     1     1     2 1   
     2     1    15 1   
     3     1    27 1   
     4     1    28 1   
     5     2     3 1   
     6     2     4 1   
     7     2    16 1   
     8     3    10 ar  
     9     3    14 ar  
    10     4     5 ar  
    11     4     9 ar  
    12     5     6 ar  
    13     5    17 1   
    14     6     7 ar  
    15     6    18 1   
    16     7     8 ar  
    17     7    19 1   
    18     8     9 ar  
    19     8    20 1   
    20     9    21 1   
    21    10    11 ar  
    22    10    22 1   
    23    11    12 ar  
    24    11    23 1   
    25    12    13 ar  
    26    12    24 1   
    27    13    14 ar  
    28    13    25 1   
    29    14    26 1   
@<TRIPOS>SUBSTRUCTURE
     1 0XM         1 TEMP              0 ****  ****    0 ROOT
