@<TRIPOS>MOLECULE
molecule
   28    29     1     0     0
SMALL
bcc


@<TRIPOS>ATOM
      1 NAV          0.0000     0.0000     0.0000 nz         1 0XM      -0.808600
      2 CBF          1.4690     0.0000     0.0000 c3         1 0XM       0.232100
      3 CBG          1.9710     0.0000     1.4200 ca         1 0XM      -0.160800
      4 CBH          1.9710    -1.2310    -0.7110 ca         1 0XM      -0.160800
      5 CBI          3.0660    -1.1460    -1.5490 ca         1 0XM      -0.113000
      6 CBJ          3.5270    -2.2750    -2.2010 ca         1 0XM      -0.102000
      7 CBK          2.8920    -3.4880    -2.0140 ca         1 0XM      -0.086000
      8 CBL          1.7970    -3.5730    -1.1740 ca         1 0XM      -0.102000
      9 CBM          1.3400    -2.4460    -0.5180 ca         1 0XM      -0.113000
     10 CBN          1.3400    -0.7730     2.3770 ca         1 0XM      -0.113000
     11 CBO          1.8040    -0.7770     3.6790 ca         1 0XM      -0.102000
     12 CBP          2.8990    -0.0080     4.0250 ca         1 0XM      -0.086000
     13 CBQ          3.5300     0.7650     3.0680 ca         1 0XM      -0.102000
     14 CBR          3.0660     0.7700     1.7660 ca         1 0XM      -0.113000
     15 H12         -0.3340    -0.8170     0.4720 hn         1 0XM       0.454800
     16 H26          1.8310     0.8840    -0.5110 hx         1 0XM       0.113700
     17 H27          3.5640    -0.1950    -1.6960 ha         1 0XM       0.125750
     18 H28          4.3850    -2.2090    -2.8590 ha         1 0XM       0.157000
     19 H29          3.2520    -4.3720    -2.5260 ha         1 0XM       0.159000
     20 H30          1.3010    -4.5250    -1.0250 ha         1 0XM       0.157000
     21 H31          0.4820    -2.5120     0.1400 ha         1 0XM       0.125750
     22 H32          0.4820    -1.3760     2.1060 ha         1 0XM       0.125750
     23 H33          1.3090    -1.3830     4.4290 ha         1 0XM       0.157000
     24 H34          3.2630    -0.0110     5.0460 ha         1 0XM       0.159000
     25 H35          4.3890     1.3680     3.3380 ha         1 0XM       0.157000
     26 H36          3.5610     1.3750     1.0160 ha         1 0XM       0.125750
     27 H2          -0.3340    -0.0000    -0.9440 hn         1 0XM       0.454800
     28 HAV3        -0.3340     0.8170     0.4720 hn         1 0XM       0.454800
@<TRIPOS>BOND
     1    11    12 ar  
     2    11    10 ar  
     3    12    13 ar  
     4    10     3 ar  
     5    13    14 ar  
     6     7     6 ar  
     7     7     8 ar  
     8     6     5 ar  
     9     8     9 ar  
    10     3    14 ar  
    11     3     2 1   
    12     5     4 ar  
    13     9     4 ar  
    14     4     2 1   
    15     2     1 1   
    16     1    15 1   
    17     2    16 1   
    18     5    17 1   
    19     6    18 1   
    20     7    19 1   
    21     8    20 1   
    22     9    21 1   
    23    10    22 1   
    24    11    23 1   
    25    12    24 1   
    26    13    25 1   
    27    14    26 1   
    28     1    27 1   
    29    28     1 1   
@<TRIPOS>SUBSTRUCTURE
     1 0XM         1 TEMP              0 ****  ****    0 ROOT
