@<TRIPOS>MOLECULE
0XN
   28    29     1     0     0
SMALL
bcc


@<TRIPOS>ATOM
      1 NAV          0.2110     0.3670    -0.3070 nz         1 0XN      -0.852600
      2 CBF          1.6670     0.0750     0.0410 c3         1 0XN       0.275100
      3 CBG          1.8060    -0.0710     1.5250 ca         1 0XN      -0.203300
      4 CBH          2.1390    -1.0810    -0.7840 ca         1 0XN      -0.203300
      5 CBI          2.3890    -0.8540    -2.1490 ca         1 0XN      -0.077750
      6 CBJ          2.8590    -1.8720    -2.9640 ca         1 0XN      -0.159250
      7 CBK          3.0980    -3.1500    -2.4100 ca         1 0XN       0.187900
      8 CBL          2.8620    -3.3790    -1.0400 ca         1 0XN      -0.159250
      9 CBM          2.3870    -2.3450    -0.2400 ca         1 0XN      -0.077750
     10 CBN          2.7720     0.7030     2.1810 ca         1 0XN      -0.077750
     11 CBO          2.9460     0.6010     3.5570 ca         1 0XN      -0.159250
     12 CBP          2.1350    -0.2830     4.2960 ca         1 0XN       0.187900
     13 CBQ          1.1600    -1.0640     3.6400 ca         1 0XN      -0.159250
     14 CBR          1.0080    -0.9560     2.2640 ca         1 0XN      -0.077750
     15 F01          3.5550    -4.1450    -3.1930 f          1 0XN      -0.101900
     16 F02          2.2880    -0.3840     5.6310 f          1 0XN      -0.101900
     17 H12         -0.3810    -0.4090     0.0030 hn         1 0XN       0.454467
     18 H27          2.2360     1.0030    -0.2910 hx         1 0XN       0.107700
     19 H28          2.2330     0.1470    -2.5830 ha         1 0XN       0.144750
     20 H29          3.0590    -1.6980    -4.0330 ha         1 0XN       0.177250
     21 H30          3.0640    -4.3740    -0.6120 ha         1 0XN       0.177250
     22 H31          2.2280    -2.5340     0.8350 ha         1 0XN       0.144750
     23 H32          3.4150     1.3940     1.6110 ha         1 0XN       0.144750
     24 H33          3.7110     1.2020     4.0740 ha         1 0XN       0.177250
     25 H34          0.5340    -1.7570     4.2250 ha         1 0XN       0.177250
     26 H35          0.2620    -1.5950     1.7650 ha         1 0XN       0.144750
     27 H2           0.1170     0.4700    -1.3210 hn         1 0XN       0.454467
     28 HAV3        -0.0920     1.2230     0.1620 hn         1 0XN       0.454467
@<TRIPOS>BOND
     1     1     2 1   
     2     1    17 1   
     3     1    27 1   
     4     1    28 1   
     5     2     3 1   
     6     2     4 1   
     7     2    18 1   
     8     3    10 ar  
     9     3    14 ar  
    10     4     5 ar  
    11     4     9 ar  
    12     5     6 ar  
    13     5    19 1   
    14     6     7 ar  
    15     6    20 1   
    16     7     8 ar  
    17     7    15 1   
    18     8     9 ar  
    19     8    21 1   
    20     9    22 1   
    21    10    11 ar  
    22    10    23 1   
    23    11    12 ar  
    24    11    24 1   
    25    12    13 ar  
    26    12    16 1   
    27    13    14 ar  
    28    13    25 1   
    29    14    26 1   
@<TRIPOS>SUBSTRUCTURE
     1 0XN         1 TEMP              0 ****  ****    0 ROOT
