@<TRIPOS>MOLECULE
molecule
   28    29     1     0     0
SMALL
bcc


@<TRIPOS>ATOM
      1 NAV          0.0000     0.0000     0.0000 nz         1 0XN      -0.809600
      2 CBF          1.4690     0.0000     0.0000 c3         1 0XN       0.238100
      3 CBG          1.9710     0.0000     1.4210 ca         1 0XN      -0.182300
      4 CBH          1.9720    -1.2300    -0.7110 ca         1 0XN      -0.182300
      5 CBI          1.3340    -2.4430    -0.5270 ca         1 0XN      -0.086000
      6 CBJ          1.7930    -3.5720    -1.1790 ca         1 0XN      -0.145250
      7 CBK          2.8930    -3.4870    -2.0160 ca         1 0XN       0.184900
      8 CBL          3.5310    -2.2720    -2.1980 ca         1 0XN      -0.145250
      9 CBM          3.0660    -1.1440    -1.5500 ca         1 0XN      -0.086000
     10 CBN          3.0660     0.7690     1.7670 ca         1 0XN      -0.086000
     11 CBO          3.5270     0.7700     3.0690 ca         1 0XN      -0.145250
     12 CBP          2.8920    -0.0010     4.0280 ca         1 0XN       0.184900
     13 CBQ          1.7960    -0.7710     3.6810 ca         1 0XN      -0.145250
     14 CBR          1.3340    -0.7660     2.3780 ca         1 0XN      -0.086000
     15 F01          3.3440    -4.5900    -2.6530 f          1 0XN      -0.105900
     16 F02          3.3430    -0.0010     5.3020 f          1 0XN      -0.105900
     17 H12         -0.3340     0.8170     0.4710 hn         1 0XN       0.455800
     18 H27          1.8300     0.8850    -0.5100 hx         1 0XN       0.114700
     19 H28          0.4730    -2.5090     0.1280 ha         1 0XN       0.132500
     20 H29          1.2930    -4.5220    -1.0350 ha         1 0XN       0.173000
     21 H30          4.3900    -2.2050    -2.8550 ha         1 0XN       0.173000
     22 H31          3.5660    -0.1930    -1.6930 ha         1 0XN       0.132500
     23 H32          3.5630     1.3720     1.0160 ha         1 0XN       0.132500
     24 H33          4.3860     1.3730     3.3400 ha         1 0XN       0.173000
     25 H34          1.2970    -1.3730     4.4310 ha         1 0XN       0.173000
     26 H35          0.4750    -1.3690     2.1060 ha         1 0XN       0.132500
     27 H2          -0.3340    -0.8170     0.4720 hn         1 0XN       0.455800
     28 HAV3        -0.3340    -0.0000    -0.9440 hn         1 0XN       0.455800
@<TRIPOS>BOND
     1     1     2 1
     2     2     4 1
     3     2     3 1
     4     5     4 ar
     5     5     6 ar
     6     4     9 ar
     7    14     3 ar
     8    14    13 ar
     9     3    10 ar
    10     6     7 ar
    11     9     8 ar
    12    13    12 ar
    13    10    11 ar
    14     7     8 ar
    15     7    15 1
    16    12    11 ar
    17    12    16 1
    18     1    17 1
    19     2    18 1
    20     5    19 1
    21     6    20 1
    22     8    21 1
    23     9    22 1
    24    10    23 1
    25    11    24 1
    26    13    25 1
    27    14    26 1
    28     1    27 1
    29    28     1 1
@<TRIPOS>SUBSTRUCTURE
     1 0XN         1 TEMP              0 ****  ****    0 ROOT
