@<TRIPOS>MOLECULE
0XP
   37    39     1     0     0
SMALL
bcc


@<TRIPOS>ATOM
      1 C1          -0.1480    -0.4500     0.2370 ca         1 0XP      -0.301300
      2 C2           1.2460    -0.6170     0.2600 ca         1 0XP       0.445200
      3 N3           2.0160    -0.5300     1.3490 nb         1 0XP      -0.727000
      4 C4           1.3880    -0.2490     2.5430 ca         1 0XP       0.549200
      5 C5          -0.0110    -0.0570     2.6280 ca         1 0XP      -0.318300
      6 C6          -0.7970    -0.1640     1.4520 ca         1 0XP       0.123600
      7 N7          -2.1820     0.0220     1.5700 ns         1 0XP      -0.459100
      8 C8          -3.1170    -0.0140     0.5460 c          1 0XP       0.688700
      9 O9          -2.8440    -0.2140    -0.6460 o          1 0XP      -0.545100
     10 C10         -4.5340     0.2150     0.9890 ca         1 0XP      -0.124600
     11 C11         -5.0690     1.5110     1.0070 ca         1 0XP       0.045900
     12 C12         -6.4060     1.7240     1.3570 ca         1 0XP      -0.095000
     13 C13         -7.2110     0.6300     1.6980 ca         1 0XP       0.023000
     14 C14         -6.6870    -0.6690     1.6930 ca         1 0XP      -0.095000
     15 C15         -5.3490    -0.8700     1.3420 ca         1 0XP       0.045900
     16 Cl1         -4.7240    -2.4450     1.3490 cl         1 0XP      -0.045900
     17 C17         -8.5720     0.8400     2.0530 cg         1 0XP       0.221800
     18 N18         -9.6850     1.0120     2.3430 n1         1 0XP      -0.331800
     19 Cl2         -4.1020     2.8430     0.6050 cl         1 0XP      -0.045900
     20 N20          2.2300    -0.1310     3.6710 ns         1 0XP      -0.542400
     21 C21          1.8310    -0.1450     5.0000 c          1 0XP       0.702100
     22 O22          0.6430    -0.1970     5.3660 o          1 0XP      -0.586100
     23 C23          2.9250    -0.0200     6.0200 cx         1 0XP      -0.234700
     24 C25          3.2610    -1.2080     6.8800 cx         1 0XP      -0.120400
     25 C26          4.2910    -0.6790     5.9090 cx         1 0XP       0.121600
     26 F1           4.6290    -1.4150     4.8110 f          1 0XP      -0.205300
     27 H1          -0.6960    -0.5450    -0.7120 ha         1 0XP       0.182000
     28 H2           1.7890    -0.8420    -0.6780 h4         1 0XP       0.027100
     29 H3          -0.4850     0.1690     3.5960 ha         1 0XP       0.178000
     30 H4          -2.5190     0.1920     2.4940 hn         1 0XP       0.330500
     31 H5          -6.8240     2.7430     1.3630 ha         1 0XP       0.169500
     32 H6          -7.3260    -1.5260     1.9630 ha         1 0XP       0.169500
     33 H7           3.2120    -0.2100     3.4930 hn         1 0XP       0.343500
     34 H24          2.8860     0.9850     6.4910 hc         1 0XP       0.118700
     35 H8           2.7660    -2.1720     6.6640 hc         1 0XP       0.095700
     36 H9           3.4230    -1.0540     7.9620 hc         1 0XP       0.095700
     37 H27          5.1690    -0.1180     6.2960 h1         1 0XP       0.099700
@<TRIPOS>BOND
     1     1     2 ar  
     2     1     6 ar  
     3     1    27 1   
     4     2     3 ar  
     5     2    28 1   
     6     3     4 ar  
     7     4     5 ar  
     8     4    20 1   
     9     5     6 ar  
    10     5    29 1   
    11     6     7 1   
    12     7     8 1   
    13     7    30 1   
    14     8     9 2   
    15     8    10 1   
    16    10    11 ar  
    17    10    15 ar  
    18    11    12 ar  
    19    11    19 1   
    20    12    13 ar  
    21    12    31 1   
    22    13    14 ar  
    23    13    17 1   
    24    14    15 ar  
    25    14    32 1   
    26    15    16 1   
    27    17    18 3   
    28    20    21 1   
    29    20    33 1   
    30    21    22 2   
    31    21    23 1   
    32    23    24 1   
    33    23    25 1   
    34    23    34 1   
    35    24    25 1   
    36    24    35 1   
    37    24    36 1   
    38    25    26 1   
    39    25    37 1   
@<TRIPOS>SUBSTRUCTURE
     1 0XP         1 TEMP              0 ****  ****    0 ROOT
