@<TRIPOS>MOLECULE
0XP
   37    39     1     0     0
SMALL
bcc


@<TRIPOS>ATOM
      1 C1           0.0000     0.0000     0.0000 ca         1 0XP      -0.256300
      2 C2           1.3780     0.0000     0.0000 ca         1 0XP       0.452200
      3 N3           2.0560     0.0000     1.1330 nb         1 0XP      -0.566000
      4 C4           1.4490    -0.0000     2.3110 ca         1 0XP       0.382200
      5 C5           0.0640    -0.0010     2.3930 ca         1 0XP      -0.307300
      6 C6          -0.6820     0.0060     1.2180 ca         1 0XP      -0.037400
      7 N7          -2.0760     0.0060     1.2560 ns         1 0XP      -0.015100
      8 C8          -2.7770     0.6760     0.3200 c          1 0XP       0.576700
      9 O9          -2.1970     1.2110    -0.6050 o          1 0XP      -0.596100
     10 C10         -4.2480     0.7580     0.4160 ca         1 0XP      -0.131600
     11 C11         -5.0440    -0.2180    -0.1900 ca         1 0XP      -0.008600
     12 C12         -6.4180    -0.1410    -0.0990 ca         1 0XP      -0.078000
     13 C13         -7.0140     0.9130     0.5970 ca         1 0XP       0.069000
     14 C14         -6.2190     1.8880     1.2020 ca         1 0XP      -0.078000
     15 C15         -4.8450     1.8090     1.1180 ca         1 0XP      -0.008600
     16 Cl1         -3.8570     3.0230     1.8700 cl         1 0XP       0.019100
     17 C17         -8.4400     0.9960     0.6850 cg         1 0XP       0.215800
     18 N18         -9.5740     1.0460     0.7420 n1         1 0XP      -0.352800
     19 Cl2         -4.3040    -1.5280    -1.0570 cl         1 0XP       0.019100
     20 N20          2.2100    -0.0060     3.4790 ns         1 0XP      -0.109400
     21 C21          3.5510    -0.1190     3.4100 c          1 0XP       0.586100
     22 O22          4.0880    -0.3090     2.3390 o          1 0XP      -0.556100
     23 C23          4.3820    -0.0080     4.6610 cx         1 0XP      -0.227700
     24 C25          5.8990    -0.1430     4.5170 cx         1 0XP      -0.070400
     25 C26          5.2770     1.2240     4.8090 cx         1 0XP       0.150600
     26 F1           5.2600     2.1630     3.7720 f          1 0XP      -0.190300
     27 H1          -0.5420    -0.0000    -0.9380 ha         1 0XP       0.154000
     28 H2           1.9190    -0.0040    -0.9380 h4         1 0XP      -0.013900
     29 H3          -0.4220    -0.0010     3.3610 ha         1 0XP       0.116000
     30 H4          -2.5560    -0.4600     2.0000 hn         1 0XP       0.170500
     31 H5          -7.0360    -0.8970    -0.5680 ha         1 0XP       0.130500
     32 H6          -6.6810     2.7060     1.7420 ha         1 0XP       0.130500
     33 H7           1.7560    -0.0170     4.3710 hn         1 0XP       0.166500
     34 H24          4.0110    -0.4530     5.5770 hc         1 0XP       0.065700
     35 H8           6.4020    -0.6540     5.3290 hc         1 0XP       0.067700
     36 H9           6.2650    -0.2400     3.5020 hc         1 0XP       0.067700
     37 H27          5.4600     1.5630     5.8220 h1         1 0XP       0.062700
@<TRIPOS>BOND
     1     1     2 ar  
     2     1     6 ar  
     3     1    27 1   
     4     2     3 ar  
     5     2    28 1   
     6     3     4 ar  
     7     4     5 ar  
     8     4    20 1   
     9     5     6 ar  
    10     5    29 1   
    11     6     7 1   
    12     7     8 1   
    13     7    30 1   
    14     8     9 2   
    15     8    10 1   
    16    10    11 ar  
    17    10    15 ar  
    18    11    12 ar  
    19    11    19 1   
    20    12    13 ar  
    21    12    31 1   
    22    13    14 ar  
    23    13    17 1   
    24    14    15 ar  
    25    14    32 1   
    26    15    16 1   
    27    17    18 3   
    28    20    21 1   
    29    20    33 1   
    30    21    22 2   
    31    21    23 1   
    32    23    24 1   
    33    23    25 1   
    34    23    34 1   
    35    24    25 1   
    36    24    35 1   
    37    24    36 1   
    38    25    26 1   
    39    25    37 1   
@<TRIPOS>SUBSTRUCTURE
     1 0XP         1 TEMP              0 ****  ****    0 ROOT
