@<TRIPOS>MOLECULE
0XR
   27    27     1     0     0
SMALL
bcc


@<TRIPOS>ATOM
      1 C5'          0.0720    -0.1060     0.2740 c3         1 0XR      -0.100100
      2 C4'          1.5580    -0.0030     0.0300 c3         1 0XR       0.139400
      3 O2'          2.1900    -0.2140     1.3050 os         1 0XR      -0.440900
      4 C3'          3.5580    -0.1650     1.3190 c          1 0XR       0.633300
      5 O1'          4.1440     0.0550     0.2540 o          1 0XR      -0.550000
      6 C2'          4.1210    -0.3910     2.6530 ce         1 0XR      -0.221200
      7 C1'          5.4490    -0.3680     2.8510 cf         1 0XR      -0.015200
      8 C1           6.1090    -0.5790     4.1260 ca         1 0XR      -0.086800
      9 C2           5.4030    -0.5640     5.3380 ca         1 0XR      -0.143000
     10 C6           7.4970    -0.7960     4.1410 ca         1 0XR      -0.097000
     11 C5           8.1800    -1.0060     5.3340 ca         1 0XR      -0.141000
     12 C4           7.4770    -0.9950     6.5470 ca         1 0XR       0.131100
     13 O4           8.1910    -1.2050     7.6980 oh         1 0XR      -0.489100
     14 C3           6.0820    -0.7700     6.5380 ca         1 0XR       0.033100
     15 O3           5.4630    -0.7700     7.7730 oh         1 0XR      -0.516100
     16 H1          -0.2600     0.6670     1.0070 hc         1 0XR       0.047367
     17 H2          -0.1910    -1.1110     0.6800 hc         1 0XR       0.047367
     18 H3          -0.4660     0.0500    -0.6920 hc         1 0XR       0.047367
     19 H4           1.8520     1.0080    -0.3540 h1         1 0XR       0.051700
     20 H5           1.9210    -0.7860    -0.6850 h1         1 0XR       0.051700
     21 H6           3.3850    -0.5810     3.4490 ha         1 0XR       0.152000
     22 H8           6.1230    -0.1830     1.9900 ha         1 0XR       0.150000
     23 H10          4.3180    -0.3850     5.3490 ha         1 0XR       0.141000
     24 H11          8.0570    -0.8050     3.1930 ha         1 0XR       0.143000
     25 H12          9.2660    -1.1810     5.3460 ha         1 0XR       0.158000
     26 H13          7.5760    -1.1670     8.4470 ho         1 0XR       0.441000
     27 H14          4.5200    -0.5990     7.6320 ho         1 0XR       0.432000
@<TRIPOS>BOND
     1     1     2 1   
     2     1    16 1   
     3     1    17 1   
     4     1    18 1   
     5     2     3 1   
     6     2    19 1   
     7     2    20 1   
     8     3     4 1   
     9     4     5 2   
    10     4     6 1   
    11     6     7 2   
    12     6    21 1   
    13     7     8 1   
    14     7    22 1   
    15     8     9 ar  
    16     8    10 ar  
    17     9    14 ar  
    18     9    23 1   
    19    10    11 ar  
    20    10    24 1   
    21    11    12 ar  
    22    11    25 1   
    23    12    13 1   
    24    12    14 ar  
    25    13    26 1   
    26    14    15 1   
    27    15    27 1   
@<TRIPOS>SUBSTRUCTURE
     1 0XR         1 TEMP              0 ****  ****    0 ROOT
