@<TRIPOS>MOLECULE
molecule
   27    27     1     0     0
SMALL
bcc


@<TRIPOS>ATOM
      1 C5'          0.0000     0.0000     0.0000 c3         1 0XR      -0.095100
      2 C4'          1.5300     0.0000     0.0000 c3         1 0XR       0.144400
      3 O2'          2.0050     0.0000     1.3470 os         1 0XR      -0.425900
      4 C3'          3.3440    -0.0000     1.5250 c          1 0XR       0.645300
      5 O1'          4.0850    -0.0010     0.5600 o          1 0XR      -0.561000
      6 C2'          3.8850     0.0010     2.8340 ce         1 0XR      -0.236200
      7 C1'          5.2250     0.0010     3.0120 cf         1 0XR      -0.006200
      8 C1           5.7860     0.0010     4.3700 ca         1 0XR      -0.082800
      9 C2           7.1730     0.0010     4.5570 ca         1 0XR      -0.128000
     10 C6           4.9350     0.0080     5.4820 ca         1 0XR      -0.102000
     11 C5           5.4640     0.0090     6.7530 ca         1 0XR      -0.156000
     12 C4           6.8410     0.0040     6.9360 ca         1 0XR       0.107100
     13 O4           7.3560     0.0050     8.1930 oh         1 0XR      -0.509100
     14 C3           7.6950     0.0020     5.8350 ca         1 0XR       0.088100
     15 O3           9.0420    -0.0030     6.0190 oh         1 0XR      -0.507100
     16 H1          -0.3610    -0.8840     0.5110 hc         1 0XR       0.046700
     17 H2          -0.3610     0.8850     0.5110 hc         1 0XR       0.046700
     18 H3          -0.3610    -0.0000    -1.0210 hc         1 0XR       0.046700
     19 H4           1.8910     0.8850    -0.5110 h1         1 0XR       0.046700
     20 H5           1.8910    -0.8850    -0.5110 h1         1 0XR       0.046700
     21 H6           3.2250     0.0010     3.6930 ha         1 0XR       0.145000
     22 H8           5.8850    -0.0000     2.1530 ha         1 0XR       0.160000
     23 H10          7.8360    -0.0010     3.7000 ha         1 0XR       0.149000
     24 H11          3.8610     0.0120     5.3420 ha         1 0XR       0.143000
     25 H12          4.8050     0.0150     7.6130 ha         1 0XR       0.146000
     26 H13          7.2620     0.8640     8.5710 ho         1 0XR       0.426000
     27 H14          9.3870    -0.8510     5.7920 ho         1 0XR       0.424000
@<TRIPOS>BOND
     1    13    12 1   
     2    15    14 1   
     3    12    14 ar  
     4    12    11 ar  
     5    14     9 ar  
     6    11    10 ar  
     7     9     8 ar  
     8    10     8 ar  
     9     8     7 1   
    10     7     6 2   
    11     6     4 1   
    12     4     3 1   
    13     4     5 2   
    14     3     2 1   
    15     2     1 1   
    16     1    16 1   
    17     1    17 1   
    18     1    18 1   
    19     2    19 1   
    20     2    20 1   
    21     6    21 1   
    22     7    22 1   
    23     9    23 1   
    24    10    24 1   
    25    11    25 1   
    26    13    26 1   
    27    15    27 1   
@<TRIPOS>SUBSTRUCTURE
     1 0XR         1 TEMP              0 ****  ****    0 ROOT
