@<TRIPOS>MOLECULE
0XR
   27    29     1     0     0
SMALL
bcc


@<TRIPOS>ATOM
      1 C5'          0.0000     0.0000     0.0000 c3         1 0XR      -0.121000
      2 C4'          1.5300     0.0000     0.0000 c3         1 0XR       0.079000
      3 O2'          2.0050     0.0000     1.3470 os         1 0XR      -0.266000
      4 C3'          3.3440    -0.0000     1.5250 c3         1 0XR       0.484000
      5 O1'          4.0850    -0.0010     0.5600 o          1 0XR      -0.453000
      6 C2'          3.8850     0.0010     2.8340 c2         1 0XR      -0.074000
      7 C1'          5.2250     0.0010     3.0120 c2         1 0XR       0.005000
      8 C1           5.7860     0.0010     4.3700 c3         1 0XR      -0.003000
      9 C2           7.1730     0.0010     4.5570 c2         1 0XR      -0.186000
     10 C6           4.9350     0.0080     5.4820 c2         1 0XR      -0.148000
     11 C5           5.4640     0.0090     6.7530 c2         1 0XR      -0.100000
     12 C4           6.8410     0.0040     6.9360 c2         1 0XR       0.026000
     13 O4           7.3560     0.0050     8.1930 oh         1 0XR      -0.241000
     14 C3           7.6950     0.0020     5.8350 c2         1 0XR       0.089000
     15 O3           9.0420    -0.0030     6.0190 oh         1 0XR      -0.241000
     16 H1          -0.3610    -0.8930     0.4950 hc         1 0XR       0.050000
     17 H2          -0.3610     0.8750     0.5260 hc         1 0XR       0.050000
     18 H3          -0.3610     0.0180    -1.0210 hc         1 0XR       0.050000
     19 H4           1.8910    -0.8850    -0.5110 h1         1 0XR       0.047500
     20 H5           1.8910     0.8850    -0.5110 h1         1 0XR       0.047500
     21 H6           3.8220     0.8750     2.1980 DU         1 0XR       0.020000
     22 H8           5.2900     0.8760     3.6470 DU         1 0XR       0.100000
     23 H10          7.8360    -0.0010     3.7000 ha         1 0XR       0.130000
     24 H11          3.8610     0.0120     5.3420 ha         1 0XR       0.125000
     25 H12          4.8050     0.0150     7.6130 ha         1 0XR       0.117000
     26 H13          7.2560    -0.8510     8.5750 ho         1 0XR       0.203000
     27 H14          9.3900     0.8510     5.8210 ho         1 0XR       0.206000
@<TRIPOS>BOND
     1     1     2 1   
     2     1    16 1   
     3     1    17 1   
     4     1    18 1   
     5     2     3 1   
     6     2    19 1   
     7     2    20 1   
     8     3     4 1   
     9     4     5 1   
    10     4     6 1   
    11     4    21 1   
    12     6     7 1   
    13     6    21 1   
    14     7     8 1   
    15     7    22 1   
    16     8     9 1   
    17     8    10 1   
    18     8    22 1   
    19     9    14 1   
    20     9    23 1   
    21    10    11 1   
    22    10    24 1   
    23    11    12 1   
    24    11    25 1   
    25    12    13 1   
    26    12    14 1   
    27    13    26 1   
    28    14    15 1   
    29    15    27 1   
@<TRIPOS>SUBSTRUCTURE
     1 0XR         1 TEMP              0 ****  ****    0 ROOT
