@<TRIPOS>MOLECULE
0XS
   26    27     1     0     0
SMALL
bcc


@<TRIPOS>ATOM
      1 C4           0.0000     0.0000     0.0000 ca         1 0XS      -0.022000
      2 C6          -0.6350    -0.0040     3.7050 c3         1 0XS       0.539600
      3 C7           1.4060     0.0000     0.0000 ca         1 0XS      -0.207300
      4 C8           2.0980     0.0000     1.2380 ca         1 0XS       0.636300
      5 C12          2.1350     0.0000    -1.2010 ca         1 0XS       0.011000
      6 C14          3.5210     0.0000    -1.1240 ca         1 0XS      -0.361900
      7 C15          4.1430     0.0000     0.1460 ca         1 0XS       0.580200
      8 O18          5.5450     0.1090    -2.2820 o          1 0XS      -0.420100
      9 C16          4.3360    -0.0000    -2.3530 c          1 0XS       0.360700
     10 N19          3.7410    -0.1220    -3.5570 nz         1 0XS       0.195600
     11 C2          -0.6460     0.0000     1.2060 ca         1 0XS      -0.080200
     12 Br1         -2.5360     0.0080     1.2700 br         1 0XS       0.004900
     13 N17          5.5230     0.0010     0.2240 nv         1 0XS      -0.599500
     14 N13          3.4370     0.0010     1.2560 nb         1 0XS      -0.520000
     15 N5           1.4040     0.0010     2.3800 nb         1 0XS      -0.463000
     16 C3           0.0930    -0.0050     2.3860 ca         1 0XS       0.351600
     17 F9           0.2900     0.1190     4.7480 f          1 0XS      -0.189633
     18 F10         -1.5280     1.0730     3.7450 f          1 0XS      -0.189633
     19 F11         -1.3430    -1.2020     3.8490 f          1 0XS      -0.189633
     20 H1          -0.5420     0.2490    -0.9050 ha         1 0XS       0.132000
     21 H2           1.6290     0.0000    -2.1590 ha         1 0XS       0.090000
     22 H3           3.1550     0.6720    -3.7220 hn         1 0XS       0.247467
     23 H4           4.4410    -0.1740    -4.2710 hn         1 0XS       0.247467
     24 H5           6.0050     0.8070     0.5700 hn         1 0XS       0.299800
     25 H6           6.0390    -0.8150    -0.0400 hn         1 0XS       0.299800
     26 H193         3.2040    -0.9660    -3.5800 hn         1 0XS       0.247467
@<TRIPOS>BOND
     1     1     3 ar  
     2     1    11 ar  
     3     1    20 1   
     4     2    16 1   
     5     2    17 1   
     6     2    18 1   
     7     2    19 1   
     8     3     4 ar  
     9     3     5 ar  
    10     4    14 ar  
    11     4    15 ar  
    12     5     6 ar  
    13     5    21 1   
    14     6     7 ar  
    15     6     9 1   
    16     7    13 1   
    17     7    14 ar  
    18     8     9 2   
    19     9    10 1   
    20    10    22 1   
    21    10    23 1   
    22    10    26 1   
    23    11    12 1   
    24    11    16 ar  
    25    13    24 1   
    26    13    25 1   
    27    15    16 ar  
@<TRIPOS>SUBSTRUCTURE
     1 0XS         1 TEMP              0 ****  ****    0 ROOT
