@<TRIPOS>MOLECULE
0XS
   26    27     1     0     0
SMALL
bcc


@<TRIPOS>ATOM
      1 C4          -0.1050     0.0000     0.0540 ca         1 0XS      -0.037000
      2 C6          -0.6310    -0.0450     3.8790 c3         1 0XS       0.598600
      3 C7           1.3250    -0.0010    -0.0040 ca         1 0XS      -0.248300
      4 C8           2.0640    -0.0170     1.2480 ca         1 0XS       0.765300
      5 C12          2.0400     0.0130    -1.1920 ca         1 0XS       0.025000
      6 C14          3.4460     0.0110    -1.1950 ca         1 0XS      -0.401900
      7 C15          4.1220    -0.0070     0.1040 ca         1 0XS       0.784200
      8 O18          5.4310     0.0230    -2.5970 o          1 0XS      -0.468100
      9 C16          4.2170     0.0250    -2.4070 c          1 0XS       0.589700
     10 N19          3.4530     0.0480    -3.7300 nz         1 0XS      -0.761400
     11 C2          -0.7580    -0.0130     1.2570 ca         1 0XS      -0.139200
     12 Br1         -2.6200    -0.0110     1.2510 br         1 0XS       0.019900
     13 N17          5.4760    -0.0110     0.2170 nv         1 0XS      -0.917500
     14 N13          3.4140    -0.0200     1.2840 nb         1 0XS      -0.694000
     15 N5           1.3700    -0.0310     2.4700 nb         1 0XS      -0.606000
     16 C3           0.0570    -0.0290     2.4650 ca         1 0XS       0.453600
     17 F9          -1.4200     1.0530     4.0870 f          1 0XS      -0.202300
     18 F10         -1.4230    -1.1450     4.0600 f          1 0XS      -0.202300
     19 F11          0.2200    -0.0590     4.9490 f          1 0XS      -0.202300
     20 H1          -0.6620     0.0130    -0.9000 ha         1 0XS       0.164000
     21 H2           1.4600     0.0250    -2.1300 ha         1 0XS       0.126000
     22 H3           2.8620    -0.7830    -3.8110 hn         1 0XS       0.467133
     23 H4           4.1280     0.0590    -4.5060 hn         1 0XS       0.467133
     24 H5           5.9030    -0.0230     1.1200 hn         1 0XS       0.476300
     25 H6           6.0650    -0.0030    -0.5820 hn         1 0XS       0.476300
     26 H193         2.8670     0.8850    -3.7840 hn         1 0XS       0.467133
@<TRIPOS>BOND
     1     1     3 ar  
     2     1    11 ar  
     3     1    20 1   
     4     2    16 1   
     5     2    17 1   
     6     2    18 1   
     7     2    19 1   
     8     3     4 ar  
     9     3     5 ar  
    10     4    14 ar  
    11     4    15 ar  
    12     5     6 ar  
    13     5    21 1   
    14     6     7 ar  
    15     6     9 1   
    16     7    13 1   
    17     7    14 ar  
    18     8     9 2   
    19     9    10 1   
    20    10    22 1   
    21    10    23 1   
    22    10    26 1   
    23    11    12 1   
    24    11    16 ar  
    25    13    24 1   
    26    13    25 1   
    27    15    16 ar  
@<TRIPOS>SUBSTRUCTURE
     1 0XS         1 TEMP              0 ****  ****    0 ROOT
