@<TRIPOS>MOLECULE
molecule
   26    27     1     0     0
SMALL
bcc


@<TRIPOS>ATOM
      1 C4           0.0000     0.0000     0.0000 ca         1 0XS      -0.034000
      2 C6          -0.6350    -0.0040     3.7050 c3         1 0XS       0.581600
      3 C7           1.4060     0.0000     0.0000 ca         1 0XS      -0.229300
      4 C8           2.0980     0.0000     1.2380 ca         1 0XS       0.751300
      5 C12          2.1350     0.0000    -1.2010 ca         1 0XS      -0.015000
      6 C14          3.5210     0.0000    -1.1240 ca         1 0XS      -0.351900
      7 C15          4.1430     0.0000     0.1460 ca         1 0XS       0.782200
      8 O18          5.5450     0.1090    -2.2820 o          1 0XS      -0.399100
      9 C16          4.3360    -0.0000    -2.3530 c          1 0XS       0.509700
     10 N19          3.7410    -0.1220    -3.5570 nz         1 0XS      -0.682400
     11 C2          -0.6460     0.0000     1.2060 ca         1 0XS      -0.129200
     12 Br1         -2.5360     0.0080     1.2700 br         1 0XS       0.007900
     13 N17          5.5230     0.0010     0.2240 nv         1 0XS      -1.051500
     14 N13          3.4370     0.0010     1.2560 nb         1 0XS      -0.650000
     15 N5           1.4040     0.0010     2.3800 nb         1 0XS      -0.607000
     16 C3           0.0930    -0.0050     2.3860 ca         1 0XS       0.438600
     17 F9           0.2900     0.1190     4.7480 f          1 0XS      -0.191633
     18 F10         -1.5280     1.0730     3.7450 f          1 0XS      -0.191633
     19 F11         -1.3430    -1.2020     3.8490 f          1 0XS      -0.191633
     20 H1          -0.5420     0.2490    -0.9050 ha         1 0XS       0.166000
     21 H2           1.6290     0.0000    -2.1590 ha         1 0XS       0.123000
     22 H3           3.1550     0.6720    -3.7220 hn         1 0XS       0.477467
     23 H4           4.4410    -0.1740    -4.2710 hn         1 0XS       0.477467
     24 H5           6.0050     0.8070     0.5700 hn         1 0XS       0.465300
     25 H6           6.0390    -0.8150    -0.0400 hn         1 0XS       0.465300
     26 H193         3.2040    -0.9660    -3.5800 hn         1 0XS       0.477467
@<TRIPOS>BOND
     1    13     7 1
     2     7    14 ar
     3     7     6 ar
     4     8     9 2
     5    14     4 ar
     6     9     6 1
     7     9    10 1
     8     6     5 ar
     9     4    15 ar
    10     4     3 ar
    11    15    16 ar
    12    19     2 1
    13     5     3 ar
    14     3     1 ar
    15    16     2 1
    16    16    11 ar
    17     2    17 1
    18     2    18 1
    19     1    11 ar
    20    11    12 1
    21     1    20 1
    22     5    21 1
    23    10    22 1
    24    10    23 1
    25    13    24 1
    26    13    25 1
    27    26    10 1
@<TRIPOS>SUBSTRUCTURE
     1 0XS         1 TEMP              0 ****  ****    0 ROOT
