@<TRIPOS>MOLECULE
molecule
   25    26     1     0     0
SMALL
bcc


@<TRIPOS>ATOM
      1 C5           0.0000     0.0000     0.0000 ca         1 0XT       0.280300
      2 C6           1.4080     0.0100     2.2960 ca         1 0XT       0.674000
      3 C8          -0.7470     0.0000    -1.3080 c3         1 0XT      -0.128400
      4 C10         -0.0080     0.0100     2.2880 ca         1 0XT       0.032000
      5 C11          1.3670     0.0310     4.6050 ca         1 0XT       1.006900
      6 C12         -0.6850     0.0210     3.5350 ca         1 0XT       0.725900
      7 N4           2.0740     0.0000     1.1380 nb         1 0XT      -0.739000
      8 N14          2.0650     0.0300     5.7980 nv         1 0XT      -1.060500
      9 N13          0.0380     0.0310     4.6440 nb         1 0XT      -0.854000
     10 N9           2.0470     0.0100     3.4730 nb         1 0XT      -0.780000
     11 C2           1.4020     0.0000     0.0000 ca         1 0XT       0.588300
     12 O1           2.0730    -0.0000    -1.1760 os         1 0XT      -0.431100
     13 C3           3.5010     0.0000    -1.1090 c3         1 0XT       0.131700
     14 N7          -0.6680     0.0050     1.1310 nb         1 0XT      -0.608000
     15 N15         -2.0630     0.0230     3.5900 nv         1 0XT      -0.970500
     16 H1          -0.4880     0.8890    -1.8710 hc         1 0XT       0.055700
     17 H2          -0.4770    -0.8800    -1.8780 hc         1 0XT       0.055700
     18 H3          -1.8130    -0.0070    -1.1150 hc         1 0XT       0.055700
     19 H4           2.3230     0.8970     6.2270 hn         1 0XT       0.447800
     20 H5           2.3120    -0.8370     6.2320 hn         1 0XT       0.447800
     21 H6           3.8380     0.8850    -0.5820 h1         1 0XT       0.053033
     22 H7           3.9100    -0.0000    -2.1120 h1         1 0XT       0.053033
     23 H8           3.8380    -0.8840    -0.5810 h1         1 0XT       0.053033
     24 H9          -2.5280     0.0320     4.4760 hn         1 0XT       0.454300
     25 H10         -2.5980     0.0140     2.7440 hn         1 0XT       0.454300
@<TRIPOS>BOND
     1    15     6 1   
     2     6     9 ar  
     3     6     4 ar  
     4     9     5 ar  
     5    14     4 ar  
     6    14     1 ar  
     7     4     2 ar  
     8     3     1 1   
     9     1    11 ar  
    10     5     8 1   
    11     5    10 ar  
    12     2    10 ar  
    13     2     7 ar  
    14    11     7 ar  
    15    11    12 1   
    16    12    13 1   
    17     3    16 1   
    18     3    17 1   
    19     3    18 1   
    20     8    19 1   
    21     8    20 1   
    22    13    21 1   
    23    13    22 1   
    24    13    23 1   
    25    15    24 1   
    26    15    25 1   
@<TRIPOS>SUBSTRUCTURE
     1 0XT         1 TEMP              0 ****  ****    0 ROOT
