@<TRIPOS>MOLECULE
0XT
   25    26     1     0     0
SMALL
bcc


@<TRIPOS>ATOM
      1 C5           0.0090    -0.0720    -0.0020 ca         1 0XT       0.279300
      2 C6           1.4610     0.0590     2.3590 ca         1 0XT       0.663000
      3 C8          -0.6440    -0.1550    -1.3380 c3         1 0XT      -0.133400
      4 C10          0.0120     0.0870     2.3040 ca         1 0XT       0.006000
      5 C11          1.3930     0.1880     4.6850 ca         1 0XT       0.937900
      6 C12         -0.6870     0.2010     3.5910 ca         1 0XT       0.719900
      7 N4           2.1900    -0.0290     1.1700 nb         1 0XT      -0.716000
      8 N14          2.0710     0.1440     5.9010 nv         1 0XT      -0.936500
      9 N13          0.0010     0.2540     4.7580 nb         1 0XT      -0.851000
     10 N9           2.1530     0.1190     3.5400 nb         1 0XT      -0.780000
     11 C2           1.4770    -0.0910     0.0480 ca         1 0XT       0.564300
     12 O1           2.0730    -0.1810    -1.1860 os         1 0XT      -0.441100
     13 C3           3.5030    -0.2090    -1.2350 c3         1 0XT       0.121700
     14 N7          -0.6820     0.0170     1.1220 nb         1 0XT      -0.595000
     15 N15         -2.0540     0.2720     3.6280 nv         1 0XT      -0.956500
     16 H1          -0.3280    -1.1040    -1.8390 hc         1 0XT       0.057700
     17 H2          -0.2990     0.7040    -1.9660 hc         1 0XT       0.057700
     18 H3          -1.7580    -0.1330    -1.2680 hc         1 0XT       0.057700
     19 H4           1.5760     0.4090     6.7180 hn         1 0XT       0.436800
     20 H5           3.0520     0.2950     5.8860 hn         1 0XT       0.436800
     21 H6           3.8960    -1.0990    -0.6900 h1         1 0XT       0.055700
     22 H7           3.9270     0.7320    -0.8100 h1         1 0XT       0.055700
     23 H8           3.7110    -0.2850    -2.3330 h1         1 0XT       0.055700
     24 H9          -2.5730     0.2000     2.7890 hn         1 0XT       0.451300
     25 H10         -2.5330     0.3180     4.4940 hn         1 0XT       0.451300
@<TRIPOS>BOND
     1     1     3 1   
     2     1    11 ar  
     3     1    14 ar  
     4     2     4 ar  
     5     2     7 ar  
     6     2    10 ar  
     7     3    16 1   
     8     3    17 1   
     9     3    18 1   
    10     4     6 ar  
    11     4    14 ar  
    12     5     8 1   
    13     5     9 ar  
    14     5    10 ar  
    15     6     9 ar  
    16     6    15 1   
    17     7    11 ar  
    18     8    19 1   
    19     8    20 1   
    20    11    12 1   
    21    12    13 1   
    22    13    21 1   
    23    13    22 1   
    24    13    23 1   
    25    15    24 1   
    26    15    25 1   
@<TRIPOS>SUBSTRUCTURE
     1 0XT         1 TEMP              0 ****  ****    0 ROOT
