@<TRIPOS>MOLECULE
0XU
   49    51     1     0     0
SMALL
bcc


@<TRIPOS>ATOM
      1 N            0.0000     0.0000     0.0000 nz         1 0XU       0.081400
      2 CA           1.4690     0.0000     0.0000 c3         1 0XU      -0.198500
      3 C            1.9710     0.0000     1.4200 c          1 0XU       0.940600
      4 O            1.2460     0.3570     2.3180 o          1 0XU      -0.790300
      5 OXT          3.2250    -0.3970     1.6880 o          1 0XU      -0.790300
      6 CB           1.9780     1.2500    -0.7210 c3         1 0XU      -0.032400
      7 CG           1.5720     1.1890    -2.1950 c3         1 0XU      -0.059400
      8 CD           2.0820     2.4390    -2.9160 c3         1 0XU       0.021700
      9 NE           1.4060     3.6260    -2.3750 nz         1 0XU       0.053400
     10 C5'          1.7910     2.3220    -4.3900 c2         1 0XU      -0.335200
     11 C4'          2.7840     2.2930    -5.2570 c2         1 0XU       0.205900
     12 O4'          2.6520     2.3060    -6.6120 os         1 0XU      -0.288900
     13 C3'          4.2590     2.2430    -4.9090 c3         1 0XU       0.149300
     14 O3'          4.5470     1.0950    -4.1080 oh         1 0XU      -0.557800
     15 C2'          4.9660     2.1370    -6.2850 c3         1 0XU       0.117100
     16 O2'          6.0330     1.1880    -6.2430 oh         1 0XU      -0.527800
     17 C1'          3.7980     1.6350    -7.1790 c3         1 0XU       0.168800
     18 N9           4.0010     2.0400    -8.5720 na         1 0XU       0.176000
     19 C8           3.5750     3.2020    -9.1440 cc         1 0XU       0.219700
     20 N7           3.9270     3.2350   -10.3960 nd         1 0XU      -0.454100
     21 C5           4.6000     2.1010   -10.7060 ca         1 0XU      -0.252200
     22 C6           5.2040     1.5970   -11.8710 ca         1 0XU       0.597200
     23 N6           5.1810     2.3210   -13.0500 nv         1 0XU      -0.456500
     24 N1           5.7970     0.4090   -11.8130 nb         1 0XU      -0.731000
     25 C2           5.8230    -0.2890   -10.6930 ca         1 0XU       0.716900
     26 N3           5.2720     0.1440    -9.5780 nb         1 0XU      -0.696000
     27 C4           4.6600     1.3240    -9.5380 ca         1 0XU       0.289800
     28 H1          -0.3340    -0.2550    -0.9090 hn         1 0XU       0.214467
     29 H2          -0.3340     0.9140     0.2340 hn         1 0XU       0.214467
     30 H4           1.8310    -0.8840    -0.5110 hx         1 0XU       0.102700
     31 H6           1.5460     2.1310    -0.2640 hc         1 0XU       0.045700
     32 H7           3.0580     1.2960    -0.6450 hc         1 0XU       0.045700
     33 H8           0.4930     1.1440    -2.2710 hc         1 0XU       0.047700
     34 H9           2.0040     0.3070    -2.6530 hc         1 0XU       0.047700
     35 H10          3.1510     2.5320    -2.7650 hx         1 0XU       0.102700
     36 H11          0.4400     3.4160    -2.2160 hn         1 0XU       0.227800
     37 H12          1.4800     4.3800    -3.0300 hn         1 0XU       0.227800
     38 H14          0.7680     2.3600    -4.7420 ha         1 0XU       0.151000
     39 H15          4.5570     3.1520    -4.4020 h1         1 0XU       0.014700
     40 H16          5.3760     1.2150    -3.6750 ho         1 0XU       0.420000
     41 H17          5.3130     3.1080    -6.6150 h1         1 0XU       0.037700
     42 H18          6.8580     1.6440    -6.2130 ho         1 0XU       0.406000
     43 H19          3.6900     0.5600    -7.0960 h2         1 0XU       0.087700
     44 H20          3.0230     3.9810    -8.6330 h5         1 0XU       0.030800
     45 H21          4.7320     3.2150   -13.0800 hn         1 0XU       0.281300
     46 H22          5.6140     1.9510   -13.8730 hn         1 0XU       0.281300
     47 H23          6.3170    -1.2530   -10.6900 h5         1 0XU       0.003100
     48 HN3         -0.3340    -0.6510     0.6830 hn         1 0XU       0.214467
     49 HE3          1.8380     3.8930    -1.5130 hn         1 0XU       0.227800
@<TRIPOS>BOND
     1     1     2 1   
     2     1    28 1   
     3     1    29 1   
     4     1    48 1   
     5     2     3 1   
     6     2     6 1   
     7     2    30 1   
     8     3     4 1   
     9     3     5 1   
    10     6     7 1   
    11     6    31 1   
    12     6    32 1   
    13     7     8 1   
    14     7    33 1   
    15     7    34 1   
    16     8     9 1   
    17     8    10 1   
    18     8    35 1   
    19     9    36 1   
    20     9    37 1   
    21     9    49 1   
    22    10    11 2   
    23    10    38 1   
    24    11    12 1   
    25    11    13 1   
    26    12    17 1   
    27    13    14 1   
    28    13    15 1   
    29    13    39 1   
    30    14    40 1   
    31    15    16 1   
    32    15    17 1   
    33    15    41 1   
    34    16    42 1   
    35    17    18 1   
    36    17    43 1   
    37    18    19 1   
    38    18    27 1   
    39    19    20 2   
    40    19    44 1   
    41    20    21 1   
    42    21    22 ar  
    43    21    27 ar  
    44    22    23 1   
    45    22    24 ar  
    46    23    45 1   
    47    23    46 1   
    48    24    25 ar  
    49    25    26 ar  
    50    25    47 1   
    51    26    27 ar  
@<TRIPOS>SUBSTRUCTURE
     1 0XU         1 TEMP              0 ****  ****    0 ROOT
