@<TRIPOS>MOLECULE
molecule
   49    51     1     0     0
SMALL
bcc


@<TRIPOS>ATOM
      1 N            0.0000     0.0000     0.0000 nz         1 0XU      -0.805600
      2 CA           1.4690     0.0000     0.0000 c3         1 0XU      -0.012500
      3 C            1.9710     0.0000     1.4200 c          1 0XU       0.859600
      4 O            1.2460     0.3570     2.3180 o          1 0XU      -0.745800
      5 OXT          3.2250    -0.3970     1.6880 o          1 0XU      -0.745800
      6 CB           1.9780     1.2500    -0.7210 c3         1 0XU      -0.105400
      7 CG           1.5720     1.1890    -2.1950 c3         1 0XU      -0.120400
      8 CD           2.0820     2.4390    -2.9160 c3         1 0XU       0.183700
      9 NE           1.4060     3.6260    -2.3750 nz         1 0XU      -0.817600
     10 C5'          1.7910     2.3220    -4.3900 c2         1 0XU      -0.326200
     11 C4'          2.7840     2.2930    -5.2570 c2         1 0XU       0.186900
     12 O4'          2.6520     2.3060    -6.6120 os         1 0XU      -0.304900
     13 C3'          4.2590     2.2430    -4.9090 c3         1 0XU       0.093300
     14 O3'          4.5470     1.0950    -4.1080 oh         1 0XU      -0.576800
     15 C2'          4.9660     2.1370    -6.2850 c3         1 0XU       0.082100
     16 O2'          6.0330     1.1880    -6.2430 oh         1 0XU      -0.548800
     17 C1'          3.7980     1.6350    -7.1790 c3         1 0XU       0.270800
     18 N9           4.0010     2.0400    -8.5720 na         1 0XU      -0.274000
     19 C8           3.5750     3.2020    -9.1440 cc         1 0XU       0.417700
     20 N7           3.9270     3.2350   -10.3960 nd         1 0XU      -0.543100
     21 C5           4.6000     2.1010   -10.7060 ca         1 0XU      -0.161200
     22 C6           5.2040     1.5970   -11.8710 ca         1 0XU       0.794200
     23 N6           5.1810     2.3210   -13.0500 nv         1 0XU      -1.071500
     24 N1           5.7970     0.4090   -11.8130 nb         1 0XU      -0.759000
     25 C2           5.8230    -0.2890   -10.6930 ca         1 0XU       0.723900
     26 N3           5.2720     0.1440    -9.5780 nb         1 0XU      -0.758000
     27 C4           4.6600     1.3240    -9.5380 ca         1 0XU       0.452800
     28 H1          -0.3340    -0.0280     0.9430 hn         1 0XU       0.443133
     29 H2          -0.3340     0.8310    -0.4480 hn         1 0XU       0.443133
     30 H4           1.8310    -0.8840    -0.5110 hx         1 0XU       0.121700
     31 H6           3.0580     1.2960    -0.6450 hc         1 0XU       0.079200
     32 H7           1.5460     2.1320    -0.2640 hc         1 0XU       0.079200
     33 H8           0.4930     1.1440    -2.2710 hc         1 0XU       0.080200
     34 H9           2.0040     0.3070    -2.6530 hc         1 0XU       0.080200
     35 H10          3.1510     2.5320    -2.7650 hx         1 0XU       0.123700
     36 H11          2.0820     4.2340    -1.9570 hn         1 0XU       0.454800
     37 H12          0.7380     3.3440    -1.6850 hn         1 0XU       0.454800
     38 H14          0.7680     2.3610    -4.7420 ha         1 0XU       0.169000
     39 H15          4.5570     3.1520    -4.4020 h1         1 0XU       0.054700
     40 H16          5.3740     1.2170    -3.6710 ho         1 0XU       0.435000
     41 H17          5.3130     3.1080    -6.6150 h1         1 0XU       0.076700
     42 H18          6.8570     1.6430    -6.1900 ho         1 0XU       0.424000
     43 H19          3.6900     0.5600    -7.0960 h2         1 0XU       0.134700
     44 H20          3.0240     3.9820    -8.6320 h5         1 0XU       0.080800
     45 H21          4.4080     2.2280   -13.6790 hn         1 0XU       0.452300
     46 H22          5.9520     2.9130   -13.2890 hn         1 0XU       0.452300
     47 H23          6.3170    -1.2530   -10.6900 h5         1 0XU       0.074100
     48 HN3         -0.3340    -0.8090    -0.4860 hn         1 0XU       0.443133
     49 HE3          0.9460     4.1150    -3.1180 hn         1 0XU       0.454800
@<TRIPOS>BOND
     1     4     3 1
     2     9     8 1
     3     7     8 1
     4     7     6 1
     5     3     5 1
     6     3     2 1
     7     1     2 1
     8     8    10 1
     9     2     6 1
    10    10    11 2
    11    11    12 1
    12    11    13 1
    13    12    17 1
    14    19    20 2
    15    19    18 1
    16    20    21 1
    17    18    17 1
    18    18    27 1
    19    13    15 1
    20    13    14 1
    21    21    22 ar
    22    21    27 ar
    23    23    22 1
    24    17    15 1
    25    22    24 ar
    26    27    26 ar
    27    15    16 1
    28    24    25 ar
    29    26    25 ar
    30     1    28 1
    31     1    29 1
    32     2    30 1
    33     6    31 1
    34     6    32 1
    35     7    33 1
    36     7    34 1
    37     8    35 1
    38     9    36 1
    39     9    37 1
    40    10    38 1
    41    13    39 1
    42    14    40 1
    43    15    41 1
    44    16    42 1
    45    17    43 1
    46    19    44 1
    47    23    45 1
    48    23    46 1
    49    25    47 1
    50    48     1 1
    51    49     9 1
@<TRIPOS>SUBSTRUCTURE
     1 0XU         1 TEMP              0 ****  ****    0 ROOT
