@<TRIPOS>MOLECULE
0XU
   49    51     1     0     0
SMALL
bcc


@<TRIPOS>ATOM
      1 N            1.0840     0.0410     1.7030 nz         1 0XU      -0.829600
      2 CA           2.1100     0.9040     1.0380 c3         1 0XU      -0.042500
      3 C            1.6300     2.4000     1.0690 c          1 0XU       0.903600
      4 O            0.3790     2.5800     1.0410 o          1 0XU      -0.780300
      5 OXT          2.5180     3.2740     0.9680 o          1 0XU      -0.780300
      6 CB           2.3560     0.5470    -0.4280 c3         1 0XU      -0.100400
      7 CG           1.2140     0.8920    -1.3670 c3         1 0XU      -0.107400
      8 CD           1.4780     2.1060    -2.2750 c3         1 0XU       0.198700
      9 NE           1.2720     3.4190    -1.5610 nz         1 0XU      -0.864600
     10 C5'          0.5680     2.0370    -3.4540 c2         1 0XU      -0.326200
     11 C4'          0.9980     2.1280    -4.7270 c2         1 0XU       0.113900
     12 O4'          0.0810     1.9610    -5.7390 os         1 0XU      -0.311900
     13 C3'          2.3900     2.3820    -5.2690 c3         1 0XU       0.150300
     14 O3'          3.3810     1.6250    -4.6240 oh         1 0XU      -0.584800
     15 C2'          2.2600     2.1150    -6.7890 c3         1 0XU       0.085100
     16 O2'          2.7770     0.8270    -7.0410 oh         1 0XU      -0.593800
     17 C1'          0.7180     2.0980    -7.0550 c3         1 0XU       0.222800
     18 N9           0.2280     3.2500    -7.7360 na         1 0XU      -0.301000
     19 C8           0.4970     4.6230    -7.4390 cc         1 0XU       0.384700
     20 N7          -0.3100     5.4760    -8.0690 nd         1 0XU      -0.502100
     21 C5          -1.2040     4.6740    -8.8000 ca         1 0XU      -0.247200
     22 C6          -2.2980     4.9840    -9.6780 ca         1 0XU       0.776200
     23 N6          -2.6420     6.2800    -9.9290 nv         1 0XU      -0.944500
     24 N1          -2.9940     3.9390   -10.2540 nb         1 0XU      -0.779000
     25 C2          -2.6010     2.6790    -9.9590 ca         1 0XU       0.707900
     26 N3          -1.5910     2.2410    -9.1570 nb         1 0XU      -0.747000
     27 C4          -0.9030     3.2650    -8.5860 ca         1 0XU       0.485800
     28 H1           1.0690    -0.8970     1.3060 hn         1 0XU       0.457800
     29 H2           1.2770    -0.0070     2.7050 hn         1 0XU       0.457800
     30 H4           3.0740     0.8060     1.6130 hx         1 0XU       0.121700
     31 H6           3.2880     1.1060    -0.7230 hc         1 0XU       0.082200
     32 H7           2.5940    -0.5460    -0.5230 hc         1 0XU       0.082200
     33 H8           0.2580     1.0490    -0.7960 hc         1 0XU       0.085200
     34 H9           1.0460     0.0220    -2.0610 hc         1 0XU       0.085200
     35 H10          2.5630     2.0920    -2.6100 hx         1 0XU       0.121700
     36 H11          0.4660     3.3590    -0.9140 hn         1 0XU       0.471800
     37 H12          2.1010     3.6530    -0.9880 hn         1 0XU       0.471800
     38 H14         -0.4980     1.8470    -3.2470 ha         1 0XU       0.171000
     39 H15          2.6790     3.4570    -5.0890 h1         1 0XU       0.095700
     40 H16          3.4030     0.7380    -5.0150 ho         1 0XU       0.448000
     41 H17          2.7940     2.8980    -7.3860 h1         1 0XU       0.094700
     42 H18          3.0600     0.7990    -7.9650 ho         1 0XU       0.444000
     43 H19          0.4000     1.1620    -7.6090 h2         1 0XU       0.150700
     44 H20          1.3290     4.9030    -6.7830 h5         1 0XU       0.060800
     45 H21         -3.3810     6.4970   -10.5530 hn         1 0XU       0.457800
     46 H22         -2.1090     7.0090    -9.5240 hn         1 0XU       0.457800
     47 H23         -3.1960     1.8750   -10.4490 h5         1 0XU       0.065100
     48 HN3          0.1630     0.5000     1.5690 hn         1 0XU       0.457800
     49 HE3          1.1020     4.1600    -2.2410 hn         1 0XU       0.471800
@<TRIPOS>BOND
     1     1     2 1   
     2     1    28 1   
     3     1    29 1   
     4     1    48 1   
     5     2     3 1   
     6     2     6 1   
     7     2    30 1   
     8     3     4 1   
     9     3     5 1   
    10     6     7 1   
    11     6    31 1   
    12     6    32 1   
    13     7     8 1   
    14     7    33 1   
    15     7    34 1   
    16     8     9 1   
    17     8    10 1   
    18     8    35 1   
    19     9    36 1   
    20     9    37 1   
    21     9    49 1   
    22    10    11 2   
    23    10    38 1   
    24    11    12 1   
    25    11    13 1   
    26    12    17 1   
    27    13    14 1   
    28    13    15 1   
    29    13    39 1   
    30    14    40 1   
    31    15    16 1   
    32    15    17 1   
    33    15    41 1   
    34    16    42 1   
    35    17    18 1   
    36    17    43 1   
    37    18    19 1   
    38    18    27 1   
    39    19    20 2   
    40    19    44 1   
    41    20    21 1   
    42    21    22 ar  
    43    21    27 ar  
    44    22    23 1   
    45    22    24 ar  
    46    23    45 1   
    47    23    46 1   
    48    24    25 ar  
    49    25    26 ar  
    50    25    47 1   
    51    26    27 ar  
@<TRIPOS>SUBSTRUCTURE
     1 0XU         1 TEMP              0 ****  ****    0 ROOT
