@<TRIPOS>MOLECULE
0XW
   24    24     1     0     0
SMALL
bcc


@<TRIPOS>ATOM
      1 C01          0.0040    -0.0150     0.0150 c3         1 0XW       0.092100
      2 N02          1.4900     0.1030     0.0190 n4         1 0XW      -0.577800
      3 C03          1.8830     1.3460    -0.6910 c3         1 0XW       0.092100
      4 C04          1.9970     0.0710     1.4360 c3         1 0XW       0.099800
      5 C05          2.4500    -1.3770     1.7460 c3         1 0XW       0.129100
      6 O06          3.7710    -1.2660     2.2470 oh         1 0XW      -0.601800
      7 C07          2.3700    -2.1440     0.4220 c3         1 0XW      -0.123400
      8 C08          2.1170    -1.1070    -0.6640 c3         1 0XW      -0.026500
      9 C09          1.2320    -1.6320    -1.8750 c          1 0XW       0.931600
     10 O10          0.9690    -2.8490    -1.8730 o          1 0XW      -0.770300
     11 O11          0.9020    -0.7440    -2.7000 o          1 0XW      -0.770300
     12 H1          -0.3670     0.0490    -1.0490 hx         1 0XW       0.096700
     13 H2          -0.4380     0.8120     0.6280 hx         1 0XW       0.096700
     14 H3          -0.2780    -1.0150     0.4380 hx         1 0XW       0.096700
     15 H4           1.5830     1.2250    -1.7750 hx         1 0XW       0.096700
     16 H5           2.9920     1.4870    -0.6220 hx         1 0XW       0.096700
     17 H6           1.3580     2.2220    -0.2320 hx         1 0XW       0.096700
     18 H7           1.1890     0.3970     2.1420 hx         1 0XW       0.094700
     19 H8           2.8760     0.7670     1.5380 hx         1 0XW       0.094700
     20 H9           1.7930    -1.8360     2.5320 h1         1 0XW       0.060700
     21 H10          4.1360    -2.1590     2.2870 ho         1 0XW       0.422000
     22 H11          3.3200    -2.6920     0.2050 hc         1 0XW       0.094200
     23 H12          1.5370    -2.8960     0.4310 hc         1 0XW       0.094200
     24 H13          3.0940    -0.7670    -1.1100 hx         1 0XW       0.083700
@<TRIPOS>BOND
     1     1     2 1   
     2     1    12 1   
     3     1    13 1   
     4     1    14 1   
     5     2     3 1   
     6     2     4 1   
     7     2     8 1   
     8     3    15 1   
     9     3    16 1   
    10     3    17 1   
    11     4     5 1   
    12     4    18 1   
    13     4    19 1   
    14     5     6 1   
    15     5     7 1   
    16     5    20 1   
    17     6    21 1   
    18     7     8 1   
    19     7    22 1   
    20     7    23 1   
    21     8     9 1   
    22     8    24 1   
    23     9    10 1   
    24     9    11 1   
@<TRIPOS>SUBSTRUCTURE
     1 0XW         1 TEMP              0 ****  ****    0 ROOT
