@<TRIPOS>MOLECULE
0XW
   24    24     1     0     0
SMALL
bcc


@<TRIPOS>ATOM
      1 C01          0.0000     0.0000     0.0000 c3         1 0XW      -0.007900
      2 N02          1.4690     0.0000     0.0000 n4         1 0XW       0.092200
      3 C03          1.9640     1.1920    -0.7020 c3         1 0XW      -0.007900
      4 C04          1.9660     0.0000     1.3920 c3         1 0XW      -0.038200
      5 C05          2.2400    -1.4900     1.7150 c3         1 0XW       0.186100
      6 O06          3.2200    -1.6190     2.7470 oh         1 0XW      -0.571800
      7 C07          2.7880    -2.0090     0.3600 c3         1 0XW      -0.018400
      8 C08          1.9660    -1.2150    -0.6720 c3         1 0XW      -0.186500
      9 C09          0.8040    -2.0470    -1.1510 c          1 0XW       0.988600
     10 O10          0.7190    -2.3570    -2.3270 o          1 0XW      -0.823800
     11 O11         -0.0510    -2.4100    -0.3610 o          1 0XW      -0.823800
     12 H1          -0.3610    -0.7800     0.6590 hx         1 0XW       0.071700
     13 H2          -0.3610    -0.1810    -1.0050 hx         1 0XW       0.071700
     14 H3          -0.3610     0.9610     0.3460 hx         1 0XW       0.071700
     15 H4           1.5600     1.2130    -1.7070 hx         1 0XW       0.071700
     16 H5           1.6530     2.0810    -0.1680 hx         1 0XW       0.071700
     17 H6           3.0460     1.1590    -0.7490 hx         1 0XW       0.071700
     18 H7           1.2120     0.3970     2.0610 hx         1 0XW       0.067700
     19 H8           2.8820     0.5740     1.4640 hx         1 0XW       0.067700
     20 H9           1.3210    -2.0000     1.9790 h1         1 0XW       0.054700
     21 H10          2.8690    -2.1400     3.4500 ho         1 0XW       0.406000
     22 H11          2.6060    -3.0720     0.2570 hc         1 0XW       0.050200
     23 H12          3.8430    -1.7820     0.2640 hc         1 0XW       0.050200
     24 H13          2.5970    -0.9390    -1.5090 hx         1 0XW       0.082700
@<TRIPOS>BOND
     1     1     2 1   
     2     1    12 1   
     3     1    13 1   
     4     1    14 1   
     5     2     3 1   
     6     2     4 1   
     7     2     8 1   
     8     3    15 1   
     9     3    16 1   
    10     3    17 1   
    11     4     5 1   
    12     4    18 1   
    13     4    19 1   
    14     5     6 1   
    15     5     7 1   
    16     5    20 1   
    17     6    21 1   
    18     7     8 1   
    19     7    22 1   
    20     7    23 1   
    21     8     9 1   
    22     8    24 1   
    23     9    10 1   
    24     9    11 1   
@<TRIPOS>SUBSTRUCTURE
     1 0XW         1 TEMP              0 ****  ****    0 ROOT
