@<TRIPOS>MOLECULE
molecule
   56    59     1     0     0
SMALL
bcc


@<TRIPOS>ATOM
      1 Cl3          0.0000     0.0000     0.0000 cl         1 0XZ      -0.071400
      2 C27          1.7360     0.0000     0.0000 ca         1 0XZ       0.042400
      3 C26          2.4280     0.0000     1.1980 ca         1 0XZ      -0.108000
      4 C25          3.8100    -0.0010     1.1960 ca         1 0XZ      -0.114000
      5 C28          2.4270    -0.0060    -1.1980 ca         1 0XZ      -0.108000
      6 C29          3.8100    -0.0070    -1.1980 ca         1 0XZ      -0.114000
      7 C24          4.5010    -0.0000    -0.0000 ca         1 0XZ      -0.119300
      8 C20          6.0080    -0.0010    -0.0010 c3         1 0XZ       0.166000
      9 C21          6.5170     1.4200    -0.2510 c3         1 0XZ      -0.106400
     10 C22          8.0430     1.4440    -0.1290 c3         1 0XZ       0.144400
     11 O23          8.5190     2.7710    -0.3620 oh         1 0XZ      -0.607800
     12 N19          6.4970    -0.8880    -1.0590 ns         1 0XZ      -0.578900
     13 C17          7.7190    -1.4480    -0.9580 c          1 0XZ       0.634100
     14 O18          8.4140    -1.2160     0.0080 o          1 0XZ      -0.526100
     15 C13          8.2210    -2.3610    -2.0470 c3         1 0XZ       0.031200
     16 C12          9.7520    -2.3630    -2.0460 c3         1 0XZ      -0.092900
     17 C11         10.2560    -3.3380    -3.1130 c3         1 0XZ       0.158800
     18 N16          7.7320    -1.8880    -3.3490 nz         1 0XZ      -0.816600
     19 C14          7.7140    -3.7840    -1.7960 c3         1 0XZ      -0.092900
     20 C15          8.2770    -4.7170    -2.8690 c3         1 0XZ       0.158800
     21 N10          9.7450    -4.6850    -2.8270 nh         1 0XZ      -0.684300
     22 C3          10.2870    -5.6150    -3.6960 ca         1 0XZ       0.663200
     23 N5          11.1500    -5.2460    -4.6380 nb         1 0XZ      -0.812000
     24 C6          11.6700    -6.1310    -5.4700 ca         1 0XZ       0.722900
     25 N4          11.3740    -7.4120    -5.4210 nb         1 0XZ      -0.749000
     26 C1           9.9440    -6.9730    -3.6020 ca         1 0XZ      -0.354400
     27 C9           9.0700    -7.7620    -2.7380 cc         1 0XZ      -0.198200
     28 C8           9.1640    -9.0370    -3.1500 cd         1 0XZ      -0.070100
     29 N7          10.0300    -9.1200    -4.2090 na         1 0XZ      -0.262100
     30 C2          10.5190    -7.8790    -4.5130 ca         1 0XZ       0.510800
     31 H1           1.8870    -0.0010     2.1370 ha         1 0XZ       0.158000
     32 H2           4.3530     0.0010     2.1340 ha         1 0XZ       0.128500
     33 H3           1.8860    -0.0110    -2.1370 ha         1 0XZ       0.158000
     34 H4           4.3520    -0.0090    -2.1360 ha         1 0XZ       0.128500
     35 H5           6.3700    -0.3510     0.9590 h1         1 0XZ       0.096700
     36 H6           6.0850     2.0930     0.4800 hc         1 0XZ       0.071700
     37 H7           6.2300     1.7360    -1.2470 hc         1 0XZ       0.071700
     38 H8           8.4750     0.7720    -0.8600 h1         1 0XZ       0.027200
     39 H9           8.3300     1.1280     0.8670 h1         1 0XZ       0.027200
     40 H10          9.1800     2.9850     0.2760 ho         1 0XZ       0.417000
     41 H11          5.9080    -1.1080    -1.8380 hn         1 0XZ       0.299500
     42 H12         10.1140    -1.3670    -2.2690 hc         1 0XZ       0.101450
     43 H13         10.1120    -2.6760    -1.0740 hc         1 0XZ       0.101450
     44 H14          9.9040    -3.0190    -4.0870 h1         1 0XZ       0.062950
     45 H15         11.3390    -3.3540    -3.1030 h1         1 0XZ       0.062950
     46 H16          6.7610    -2.1150    -3.4430 hn         1 0XZ       0.457133
     47 H17          8.2510    -2.3300    -4.0810 hn         1 0XZ       0.457133
     48 H19          8.0440    -4.1170    -0.8200 hc         1 0XZ       0.101450
     49 H20          6.6320    -3.7940    -1.8420 hc         1 0XZ       0.101450
     50 H21          7.9380    -4.3900    -3.8450 h1         1 0XZ       0.062950
     51 H22          7.9340    -5.7280    -2.6830 h1         1 0XZ       0.062950
     52 H23         12.4110    -5.8980    -6.2260 h5         1 0XZ       0.076100
     53 H24          8.4630    -7.3910    -1.9210 ha         1 0XZ       0.156000
     54 H25          8.6350    -9.8740    -2.7110 h4         1 0XZ       0.187000
     55 H26         10.2670    -9.9640    -4.6920 hn         1 0XZ       0.322700
     56 H163         7.8480    -0.8950    -3.4080 hn         1 0XZ       0.457133
@<TRIPOS>BOND
     1    25    30 ar  
     2    25    24 ar  
     3    29    30 1   
     4    29    28 1   
     5    30    26 ar  
     6    24    23 ar  
     7    28    27 2   
     8    26    27 1   
     9    26    22 ar  
    10    23    22 ar  
    11    22    21 1   
    12    21    17 1   
    13    21    20 1   
    14    17    16 1   
    15     1     2 1   
    16    20    19 1   
    17     2     5 ar  
    18     2     3 ar  
    19    16    15 1   
    20    19    15 1   
    21     5     6 ar  
    22     3     4 ar  
    23    15    13 1   
    24    15    18 1   
    25    14    13 2   
    26     6     7 ar  
    27     4     7 ar  
    28    13    12 1   
    29     7     8 1   
    30    12     8 1   
    31     8     9 1   
    32     9    10 1   
    33    10    11 1   
    34     3    31 1   
    35     4    32 1   
    36     5    33 1   
    37     6    34 1   
    38     8    35 1   
    39     9    36 1   
    40     9    37 1   
    41    10    38 1   
    42    10    39 1   
    43    11    40 1   
    44    12    41 1   
    45    16    42 1   
    46    16    43 1   
    47    17    44 1   
    48    17    45 1   
    49    18    46 1   
    50    18    47 1   
    51    19    48 1   
    52    19    49 1   
    53    20    50 1   
    54    20    51 1   
    55    24    52 1   
    56    27    53 1   
    57    28    54 1   
    58    29    55 1   
    59    56    18 1   
@<TRIPOS>SUBSTRUCTURE
     1 0XZ         1 TEMP              0 ****  ****    0 ROOT
