@<TRIPOS>MOLECULE
0XZ
   56    59     1     0     0
SMALL
bcc


@<TRIPOS>ATOM
      1 Cl3          0.0000     0.0000     0.0000 cl         1 0XZ       0.019600
      2 C27          1.7360     0.0000     0.0000 ca         1 0XZ      -0.028600
      3 C26          2.4280     0.0000     1.1980 ca         1 0XZ      -0.081500
      4 C25          3.8100    -0.0010     1.1960 ca         1 0XZ      -0.083500
      5 C28          2.4270    -0.0060    -1.1980 ca         1 0XZ      -0.081500
      6 C29          3.8100    -0.0070    -1.1980 ca         1 0XZ      -0.083500
      7 C24          4.5010    -0.0000    -0.0000 ca         1 0XZ      -0.136300
      8 C20          6.0080    -0.0010    -0.0010 c3         1 0XZ       0.092000
      9 C21          6.5170     1.4200    -0.2510 c3         1 0XZ      -0.062400
     10 C22          8.0430     1.4440    -0.1290 c3         1 0XZ       0.216400
     11 O23          8.5190     2.7710    -0.3620 oh         1 0XZ      -0.588800
     12 N19          6.4970    -0.8880    -1.0590 ns         1 0XZ      -0.191900
     13 C17          7.7190    -1.4480    -0.9580 c          1 0XZ       0.548100
     14 O18          8.4140    -1.2160     0.0080 o          1 0XZ      -0.553100
     15 C13          8.2210    -2.3610    -2.0470 c3         1 0XZ      -0.168800
     16 C12          9.7520    -2.3630    -2.0460 c3         1 0XZ      -0.025900
     17 C11         10.2560    -3.3380    -3.1130 c3         1 0XZ       0.123800
     18 N16          7.7320    -1.8880    -3.3490 nz         1 0XZ       0.031400
     19 C14          7.7140    -3.7840    -1.7960 c3         1 0XZ      -0.025900
     20 C15          8.2770    -4.7170    -2.8690 c3         1 0XZ       0.123800
     21 N10          9.7450    -4.6850    -2.8270 nh         1 0XZ      -0.441300
     22 C3          10.2870    -5.6150    -3.6960 ca         1 0XZ       0.539200
     23 N5          11.1500    -5.2460    -4.6380 nb         1 0XZ      -0.698000
     24 C6          11.6700    -6.1310    -5.4700 ca         1 0XZ       0.659900
     25 N4          11.3740    -7.4120    -5.4210 nb         1 0XZ      -0.618000
     26 C1           9.9440    -6.9730    -3.6020 ca         1 0XZ      -0.358400
     27 C9           9.0700    -7.7620    -2.7380 cc         1 0XZ      -0.155200
     28 C8           9.1640    -9.0370    -3.1500 cd         1 0XZ      -0.240100
     29 N7          10.0300    -9.1200    -4.2090 na         1 0XZ       0.293900
     30 C2          10.5190    -7.8790    -4.5130 ca         1 0XZ       0.273800
     31 H1           1.8870    -0.0010     2.1370 ha         1 0XZ       0.124500
     32 H2           4.3530     0.0010     2.1340 ha         1 0XZ       0.101000
     33 H3           1.8860    -0.0110    -2.1370 ha         1 0XZ       0.124500
     34 H4           4.3520    -0.0090    -2.1360 ha         1 0XZ       0.101000
     35 H5           6.3700    -0.3510     0.9590 h1         1 0XZ       0.069700
     36 H6           6.0850     2.0930     0.4800 hc         1 0XZ       0.040200
     37 H7           6.2300     1.7360    -1.2470 hc         1 0XZ       0.040200
     38 H8           8.4750     0.7720    -0.8600 h1         1 0XZ      -0.005800
     39 H9           8.3300     1.1280     0.8670 h1         1 0XZ      -0.005800
     40 H10          9.1800     2.9850     0.2760 ho         1 0XZ       0.405000
     41 H11          5.9080    -1.1080    -1.8380 hn         1 0XZ       0.162500
     42 H12         10.1140    -1.3670    -2.2690 hc         1 0XZ       0.065450
     43 H13         10.1120    -2.6760    -1.0740 hc         1 0XZ       0.065450
     44 H14          9.9040    -3.0190    -4.0870 h1         1 0XZ       0.035450
     45 H15         11.3390    -3.3540    -3.1030 h1         1 0XZ       0.035450
     46 H16          6.7610    -2.1150    -3.4430 hn         1 0XZ       0.236133
     47 H17          8.2510    -2.3300    -4.0810 hn         1 0XZ       0.236133
     48 H19          8.0440    -4.1170    -0.8200 hc         1 0XZ       0.065450
     49 H20          6.6320    -3.7940    -1.8420 hc         1 0XZ       0.065450
     50 H21          7.9380    -4.3900    -3.8450 h1         1 0XZ       0.035450
     51 H22          7.9340    -5.7280    -2.6830 h1         1 0XZ       0.035450
     52 H23         12.4110    -5.8980    -6.2260 h5         1 0XZ       0.011100
     53 H24          8.4630    -7.3910    -1.9210 ha         1 0XZ       0.133000
     54 H25          8.6350    -9.8740    -2.7110 h4         1 0XZ       0.155000
     55 H26         10.2670    -9.9640    -4.6920 hn         1 0XZ       0.132700
     56 H163         7.8480    -0.8950    -3.4080 hn         1 0XZ       0.236133
@<TRIPOS>BOND
     1     1     2 1   
     2     2     3 ar  
     3     2     5 ar  
     4     3     4 ar  
     5     3    31 1   
     6     4     7 ar  
     7     4    32 1   
     8     5     6 ar  
     9     5    33 1   
    10     6     7 ar  
    11     6    34 1   
    12     7     8 1   
    13     8     9 1   
    14     8    12 1   
    15     8    35 1   
    16     9    10 1   
    17     9    36 1   
    18     9    37 1   
    19    10    11 1   
    20    10    38 1   
    21    10    39 1   
    22    11    40 1   
    23    12    13 1   
    24    12    41 1   
    25    13    14 2   
    26    13    15 1   
    27    15    16 1   
    28    15    18 1   
    29    15    19 1   
    30    16    17 1   
    31    16    42 1   
    32    16    43 1   
    33    17    21 1   
    34    17    44 1   
    35    17    45 1   
    36    18    46 1   
    37    18    47 1   
    38    18    56 1   
    39    19    20 1   
    40    19    48 1   
    41    19    49 1   
    42    20    21 1   
    43    20    50 1   
    44    20    51 1   
    45    21    22 1   
    46    22    23 ar  
    47    22    26 ar  
    48    23    24 ar  
    49    24    25 ar  
    50    24    52 1   
    51    25    30 ar  
    52    26    27 1   
    53    26    30 ar  
    54    27    28 2   
    55    27    53 1   
    56    28    29 1   
    57    28    54 1   
    58    29    30 1   
    59    29    55 1   
@<TRIPOS>SUBSTRUCTURE
     1 0XZ         1 TEMP              0 ****  ****    0 ROOT
