@<TRIPOS>MOLECULE
0XZ
   57    60     1     0     0
SMALL
bcc


@<TRIPOS>ATOM
      1 Cl3         -0.0720    -2.0560    -0.4220 cl         1 0XZ       0.007600
      2 C27          1.4880    -1.4350    -0.3230 ca         1 0XZ       0.069400
      3 C26          2.0700    -1.2000     0.9340 ca         1 0XZ      -0.116500
      4 C25          3.3610    -0.6930     1.0140 ca         1 0XZ      -0.087500
      5 C28          2.2080    -1.1530    -1.4920 ca         1 0XZ      -0.116500
      6 C29          3.4990    -0.6390    -1.4060 ca         1 0XZ      -0.087500
      7 C24          4.0860    -0.4120    -0.1540 ca         1 0XZ      -0.224300
      8 C20          5.4900     0.0910    -0.0920 c3         1 0XZ       0.226800
      9 C21          6.3880    -0.8120     0.7510 c3         1 0XZ      -0.155400
     10 C22          7.7770    -0.2700     1.0420 c3         1 0XZ       0.116400
     11 O23          8.1980     0.6860     0.0760 oh         1 0XZ      -0.699800
     12 N19          5.4650     1.5350     0.4440 ny         1 0XZ      -0.663800
     13 C17          6.4520     2.4290    -0.2110 c          1 0XZ       0.533100
     14 O18          6.6740     2.2810    -1.4080 o          1 0XZ      -0.415100
     15 C13          7.1350     3.5640     0.5990 c3         1 0XZ       0.115200
     16 C12          6.5010     4.8870     0.1130 c3         1 0XZ      -0.161400
     17 C11          5.1460     5.1390     0.7810 c3         1 0XZ       0.174300
     18 N16          8.6040     3.5400     0.1850 nz         1 0XZ      -0.850600
     19 C14          7.0590     3.4180     2.1240 c3         1 0XZ      -0.161400
     20 C15          5.7150     3.8490     2.7330 c3         1 0XZ       0.174300
     21 N10          5.1390     5.0760     2.2280 nh         1 0XZ      -0.691300
     22 C3           5.6520     6.2740     2.8650 ca         1 0XZ       0.598200
     23 N5           6.9870     6.5480     2.8530 nb         1 0XZ      -0.814000
     24 C6           7.3990     7.6850     3.4860 ca         1 0XZ       0.650900
     25 N4           6.6560     8.6080     4.1360 nb         1 0XZ      -0.646000
     26 C1           4.7390     7.1380     3.5020 ca         1 0XZ      -0.265400
     27 C9           3.3230     7.2040     3.7270 cc         1 0XZ      -0.175200
     28 C8           3.0790     8.3670     4.4580 cd         1 0XZ      -0.053100
     29 N7           4.2710     9.0530     4.7130 na         1 0XZ      -0.263100
     30 C2           5.3200     8.3330     4.1430 ca         1 0XZ       0.454800
     31 H1           1.5060    -1.4270     1.8550 ha         1 0XZ       0.183000
     32 H2           3.8100    -0.5310     2.0060 ha         1 0XZ       0.141500
     33 H3           1.7560    -1.3420    -2.4820 ha         1 0XZ       0.183000
     34 H4           4.0570    -0.4310    -2.3340 ha         1 0XZ       0.141500
     35 H5           5.9220     0.1580    -1.1400 hx         1 0XZ       0.122700
     36 H6           5.8940    -1.0710     1.7270 hc         1 0XZ       0.112700
     37 H7           6.4690    -1.7770     0.1730 hc         1 0XZ       0.112700
     38 H8           7.7970     0.2920     2.0180 h1         1 0XZ       0.080700
     39 H9           8.5150    -1.1160     1.1060 h1         1 0XZ       0.080700
     40 H10          8.4940     0.2070    -0.7120 ho         1 0XZ       0.456000
     41 H11          4.5180     1.9160     0.2770 hn         1 0XZ       0.473800
     42 H12          6.3640     4.8640    -1.0010 hc         1 0XZ       0.103700
     43 H13          7.1840     5.7480     0.3590 hc         1 0XZ       0.103700
     44 H14          4.7820     6.1590     0.4570 h1         1 0XZ       0.081200
     45 H15          4.4040     4.3760     0.4100 h1         1 0XZ       0.081200
     46 H16          8.6790     3.6520    -0.8330 hn         1 0XZ       0.481800
     47 H17          9.0900     4.3160     0.6530 hn         1 0XZ       0.481800
     48 H19          7.8450     4.0780     2.5970 hc         1 0XZ       0.103700
     49 H20          7.2950     2.3660     2.4320 hc         1 0XZ       0.103700
     50 H21          4.9400     3.0460     2.5810 h1         1 0XZ       0.081200
     51 H22          5.8700     3.9480     3.8490 h1         1 0XZ       0.081200
     52 H23          8.4930     7.8830     3.4650 h5         1 0XZ       0.066100
     53 H24          2.5830     6.4810     3.3940 ha         1 0XZ       0.175000
     54 H25          2.1270     8.7680     4.8240 h4         1 0XZ       0.200000
     55 H26          4.3650     9.9040     5.2120 hn         1 0XZ       0.338700
     56 H163         9.0300     2.6430     0.4600 hn         1 0XZ       0.481800
     57 H192         5.6310     1.5070     1.4570 hn         1 0XZ       0.473800
@<TRIPOS>BOND
     1     1     2 1   
     2     2     3 ar  
     3     2     5 ar  
     4     3     4 ar  
     5     3    31 1   
     6     4     7 ar  
     7     4    32 1   
     8     5     6 ar  
     9     5    33 1   
    10     6     7 ar  
    11     6    34 1   
    12     7     8 1   
    13     8     9 1   
    14     8    12 1   
    15     8    35 1   
    16     9    10 1   
    17     9    36 1   
    18     9    37 1   
    19    10    11 1   
    20    10    38 1   
    21    10    39 1   
    22    11    40 1   
    23    12    13 1   
    24    12    41 1   
    25    12    57 1   
    26    13    14 2   
    27    13    15 1   
    28    15    16 1   
    29    15    18 1   
    30    15    19 1   
    31    16    17 1   
    32    16    42 1   
    33    16    43 1   
    34    17    21 1   
    35    17    44 1   
    36    17    45 1   
    37    18    46 1   
    38    18    47 1   
    39    18    56 1   
    40    19    20 1   
    41    19    48 1   
    42    19    49 1   
    43    20    21 1   
    44    20    50 1   
    45    20    51 1   
    46    21    22 1   
    47    22    23 ar  
    48    22    26 ar  
    49    23    24 ar  
    50    24    25 ar  
    51    24    52 1   
    52    25    30 ar  
    53    26    27 1   
    54    26    30 ar  
    55    27    28 2   
    56    27    53 1   
    57    28    29 1   
    58    28    54 1   
    59    29    30 1   
    60    29    55 1   
@<TRIPOS>SUBSTRUCTURE
     1 0XZ         1 TEMP              0 ****  ****    0 ROOT
