@<TRIPOS>MOLECULE
0Y0
   47    49     1     0     0
SMALL
bcc


@<TRIPOS>ATOM
      1 OXT          0.0000     0.0000     0.0000 o          1 0Y0      -0.815300
      2 C            1.2080     0.0000     0.0000 c          1 0Y0       0.956600
      3 O            1.8790    -0.0000    -1.1630 o          1 0Y0      -0.815300
      4 CA           1.9610     0.0000     1.3050 c3         1 0Y0      -0.200500
      5 N            1.0790     0.4740     2.3800 nz         1 0Y0       0.080400
      6 CB           2.4330    -1.4200     1.6230 c3         1 0Y0      -0.023400
      7 CAS          3.3030    -1.3990     2.8810 c3         1 0Y0       0.127800
      8 NAR          3.7560    -2.7630     3.1860 n7         1 0Y0      -0.550200
      9 CAF          4.5960    -2.7820     4.3900 c3         1 0Y0       0.134800
     10 CAA          5.0480    -4.2160     4.6760 c3         1 0Y0       0.164100
     11 OAE          5.9280    -4.6660     3.6330 os         1 0Y0      -0.379600
     12 CAB          5.8400    -4.2640     5.9960 c3         1 0Y0       0.125100
     13 OAH          5.1980    -5.1300     6.9340 oh         1 0Y0      -0.547800
     14 CAC          7.2210    -4.8320     5.5910 c3         1 0Y0       0.128100
     15 OAI          7.6920    -5.7690     6.5610 oh         1 0Y0      -0.534800
     16 CAD          6.8990    -5.5390     4.2490 c3         1 0Y0       0.153800
     17 N9           8.1030    -5.6410     3.4180 na         1 0Y0       0.206000
     18 C8           8.5290    -4.7270     2.5020 cc         1 0Y0       0.246700
     19 N7           9.6330    -5.1370     1.9470 nd         1 0Y0      -0.494100
     20 C5           9.9830    -6.3360     2.4700 ca         1 0Y0      -0.245200
     21 C4           9.0090    -6.6710     3.4250 ca         1 0Y0       0.276800
     22 N3           9.1260    -7.8130     4.0950 nb         1 0Y0      -0.674000
     23 C2          10.1410    -8.6210     3.8710 ca         1 0Y0       0.690900
     24 N1          11.0840    -8.3470     2.9870 nb         1 0Y0      -0.746000
     25 C6          11.0460    -7.2320     2.2650 ca         1 0Y0       0.591200
     26 N6          12.0380    -6.9530     1.3410 nv         1 0Y0      -0.481500
     27 H2           2.8190     0.6570     1.2270 hx         1 0Y0       0.087700
     28 H3           0.5440     1.2540     2.0530 hn         1 0Y0       0.210800
     29 H4           0.4600    -0.2640     2.6530 hn         1 0Y0       0.210800
     30 H6           1.5730    -2.0570     1.7890 hc         1 0Y0       0.061700
     31 H7           3.0110    -1.8030     0.7900 hc         1 0Y0       0.061700
     32 H8           4.1630    -0.7610     2.7150 h1         1 0Y0      -0.008300
     33 H9           2.7250    -1.0160     3.7140 h1         1 0Y0      -0.008300
     34 H10          2.9620    -3.3560     3.3230 hn         1 0Y0       0.257800
     35 H12          5.4640    -2.1540     4.2350 h1         1 0Y0       0.012200
     36 H13          4.0260    -2.4090     5.2330 h1         1 0Y0       0.012200
     37 H14          4.1890    -4.8730     4.7400 h1         1 0Y0       0.043700
     38 H15          5.9490    -3.2670     6.4060 h1         1 0Y0       0.010700
     39 H16          4.9760    -4.6440     7.7110 ho         1 0Y0       0.389000
     40 H17          7.9350    -4.0310     5.4400 h1         1 0Y0       0.022700
     41 H18          8.2970    -5.3410     7.1430 ho         1 0Y0       0.389000
     42 H19          6.4690    -6.5170     4.4290 h2         1 0Y0       0.074700
     43 H20          8.0240    -3.7970     2.2700 h5         1 0Y0       0.040800
     44 H21         10.2100    -9.5410     4.4390 h5         1 0Y0      -0.004900
     45 H22         12.0000    -6.1090     0.8050 hn         1 0Y0       0.276800
     46 H23         12.7920    -7.5980     1.2060 hn         1 0Y0       0.276800
     47 HN3          1.6310     0.7520     3.1670 hn         1 0Y0       0.210800
@<TRIPOS>BOND
     1     1     2 1   
     2     2     3 1   
     3     2     4 1   
     4     4     5 1   
     5     4     6 1   
     6     4    27 1   
     7     5    28 1   
     8     5    29 1   
     9     5    47 1   
    10     6     7 1   
    11     6    30 1   
    12     6    31 1   
    13     7     8 1   
    14     7    32 1   
    15     7    33 1   
    16     8     9 1   
    17     8    34 1   
    18     9    10 1   
    19     9    35 1   
    20     9    36 1   
    21    10    11 1   
    22    10    12 1   
    23    10    37 1   
    24    11    16 1   
    25    12    13 1   
    26    12    14 1   
    27    12    38 1   
    28    13    39 1   
    29    14    15 1   
    30    14    16 1   
    31    14    40 1   
    32    15    41 1   
    33    16    17 1   
    34    16    42 1   
    35    17    18 1   
    36    17    21 1   
    37    18    19 2   
    38    18    43 1   
    39    19    20 1   
    40    20    21 ar  
    41    20    25 ar  
    42    21    22 ar  
    43    22    23 ar  
    44    23    24 ar  
    45    23    44 1   
    46    24    25 ar  
    47    25    26 1   
    48    26    45 1   
    49    26    46 1   
@<TRIPOS>SUBSTRUCTURE
     1 0Y0         1 TEMP              0 ****  ****    0 ROOT
