@<TRIPOS>MOLECULE
0Y0
   48    50     1     0     0
SMALL
bcc


@<TRIPOS>ATOM
      1 OXT         -0.9860    -2.7940     1.9270 o          1 0Y0      -0.761800
      2 C           -0.1550    -2.6720     0.9920 c          1 0Y0       0.904600
      3 O            0.2590    -3.5540     0.2080 o          1 0Y0      -0.761800
      4 CA           0.5800    -1.2710     0.8950 c3         1 0Y0      -0.061500
      5 N           -0.2970    -0.2220     1.4980 nz         1 0Y0      -0.830600
      6 CB           1.9450    -1.4100     1.5650 c3         1 0Y0      -0.107400
      7 CAS          1.9450    -2.3420     2.7770 c3         1 0Y0       0.105800
      8 NAR          2.0750    -3.7920     2.4400 ny         1 0Y0      -0.767000
      9 CAF          1.1750    -4.6380     3.2830 c3         1 0Y0       0.076800
     10 CAA          1.3240    -6.1250     2.9360 c3         1 0Y0       0.086100
     11 OAE          0.3400    -6.8350     3.6760 os         1 0Y0      -0.395600
     12 CAB          1.1170    -6.4110     1.4300 c3         1 0Y0       0.091100
     13 OAH          2.3620    -6.4830     0.7860 oh         1 0Y0      -0.603800
     14 CAC          0.2530    -7.6860     1.4120 c3         1 0Y0       0.089100
     15 OAI          1.1270    -8.7930     1.3550 oh         1 0Y0      -0.598800
     16 CAD         -0.4680    -7.6680     2.8030 c3         1 0Y0       0.227800
     17 N9          -1.8200    -7.2000     2.7530 na         1 0Y0      -0.305000
     18 C8          -2.3150    -5.9120     2.3870 cc         1 0Y0       0.400700
     19 N7          -3.6190    -5.7540     2.6280 nd         1 0Y0      -0.522100
     20 C5          -4.0420    -6.9620     3.2090 ca         1 0Y0      -0.241200
     21 C4          -2.9200    -7.8830     3.3180 ca         1 0Y0       0.473800
     22 N3          -3.0130    -9.1400     3.8360 nb         1 0Y0      -0.749000
     23 C2          -4.2720    -9.4410     4.2470 ca         1 0Y0       0.701900
     24 N1          -5.4030    -8.6960     4.2090 nb         1 0Y0      -0.783000
     25 C6          -5.3160    -7.4230     3.6830 ca         1 0Y0       0.770200
     26 N6          -6.4140    -6.6110     3.6250 nv         1 0Y0      -0.951500
     27 H2           0.7250    -1.0150    -0.1950 hx         1 0Y0       0.128700
     28 H3          -0.9140     0.1590     0.7760 hn         1 0Y0       0.460467
     29 H4           0.2410     0.5320     1.9230 hn         1 0Y0       0.460467
     30 H6           2.3430    -0.4150     1.9050 hc         1 0Y0       0.095200
     31 H7           2.6540    -1.7840     0.7740 hc         1 0Y0       0.095200
     32 H8           2.8060    -2.0720     3.4540 hx         1 0Y0       0.107700
     33 H9           0.9800    -2.2030     3.3490 hx         1 0Y0       0.107700
     34 H10          3.0440    -4.0960     2.5700 hn         1 0Y0       0.472800
     35 H12          0.1040    -4.3130     3.1000 hx         1 0Y0       0.127200
     36 H13          1.4300    -4.4750     4.3670 hx         1 0Y0       0.127200
     37 H14          2.3260    -6.5090     3.2770 h1         1 0Y0       0.085700
     38 H15          0.5480    -5.5840     0.9090 h1         1 0Y0       0.125700
     39 H16          2.6730    -7.4010     0.8060 ho         1 0Y0       0.448000
     40 H17         -0.4650    -7.6870     0.5520 h1         1 0Y0       0.098700
     41 H18          0.6130    -9.5550     1.0550 ho         1 0Y0       0.441000
     42 H19         -0.4390    -8.6920     3.2870 h2         1 0Y0       0.142700
     43 H20         -1.6660    -5.1470     1.9330 h5         1 0Y0       0.086800
     44 H21         -4.3970   -10.4580     4.6820 h5         1 0Y0       0.062100
     45 H22         -7.3030    -6.9400     3.9120 hn         1 0Y0       0.453800
     46 H23         -6.3330    -5.7240     3.1940 hn         1 0Y0       0.453800
     47 HN3         -0.8910    -0.6870     2.2140 hn         1 0Y0       0.460467
     48 HAR2         1.8290    -3.9580     1.4380 hn         1 0Y0       0.472800
@<TRIPOS>BOND
     1     1     2 1   
     2     2     3 1   
     3     2     4 1   
     4     4     5 1   
     5     4     6 1   
     6     4    27 1   
     7     5    28 1   
     8     5    29 1   
     9     5    47 1   
    10     6     7 1   
    11     6    30 1   
    12     6    31 1   
    13     7     8 1   
    14     7    32 1   
    15     7    33 1   
    16     8     9 1   
    17     8    34 1   
    18     8    48 1   
    19     9    10 1   
    20     9    35 1   
    21     9    36 1   
    22    10    11 1   
    23    10    12 1   
    24    10    37 1   
    25    11    16 1   
    26    12    13 1   
    27    12    14 1   
    28    12    38 1   
    29    13    39 1   
    30    14    15 1   
    31    14    16 1   
    32    14    40 1   
    33    15    41 1   
    34    16    17 1   
    35    16    42 1   
    36    17    18 1   
    37    17    21 1   
    38    18    19 2   
    39    18    43 1   
    40    19    20 1   
    41    20    21 ar  
    42    20    25 ar  
    43    21    22 ar  
    44    22    23 ar  
    45    23    24 ar  
    46    23    44 1   
    47    24    25 ar  
    48    25    26 1   
    49    26    45 1   
    50    26    46 1   
@<TRIPOS>SUBSTRUCTURE
     1 0Y0         1 TEMP              0 ****  ****    0 ROOT
