@<TRIPOS>MOLECULE
molecule
   47    49     1     0     0
SMALL
bcc


@<TRIPOS>ATOM
      1 OXT          0.0000     0.0000     0.0000 o          1 0Y0      -0.772300
      2 C            1.2080     0.0000     0.0000 c          1 0Y0       0.869600
      3 O            1.8790    -0.0000    -1.1630 o          1 0Y0      -0.772300
      4 CA           1.9610     0.0000     1.3050 c3         1 0Y0      -0.018500
      5 N            1.0790     0.4740     2.3800 nz         1 0Y0      -0.792600
      6 CB           2.4330    -1.4200     1.6230 c3         1 0Y0      -0.090400
      7 CAS          3.3030    -1.3990     2.8810 c3         1 0Y0       0.142800
      8 NAR          3.7560    -2.7630     3.1860 n7         1 0Y0      -0.791200
      9 CAF          4.5960    -2.7820     4.3900 c3         1 0Y0       0.154800
     10 CAA          5.0480    -4.2160     4.6760 c3         1 0Y0       0.129100
     11 OAE          5.9280    -4.6660     3.6330 os         1 0Y0      -0.393600
     12 CAB          5.8400    -4.2640     5.9960 c3         1 0Y0       0.083100
     13 OAH          5.1980    -5.1300     6.9340 oh         1 0Y0      -0.568800
     14 CAC          7.2210    -4.8320     5.5910 c3         1 0Y0       0.093100
     15 OAI          7.6920    -5.7690     6.5610 oh         1 0Y0      -0.554800
     16 CAD          6.8990    -5.5390     4.2490 c3         1 0Y0       0.261800
     17 N9           8.1030    -5.6410     3.4180 na         1 0Y0      -0.253000
     18 C8           8.5290    -4.7270     2.5020 cc         1 0Y0       0.426700
     19 N7           9.6330    -5.1370     1.9470 nd         1 0Y0      -0.586100
     20 C5           9.9830    -6.3360     2.4700 ca         1 0Y0      -0.212200
     21 C4           9.0090    -6.6710     3.4250 ca         1 0Y0       0.480800
     22 N3           9.1260    -7.8130     4.0950 nb         1 0Y0      -0.785000
     23 C2          10.1410    -8.6210     3.8710 ca         1 0Y0       0.740900
     24 N1          11.0840    -8.3470     2.9870 nb         1 0Y0      -0.836000
     25 C6          11.0460    -7.2320     2.2650 ca         1 0Y0       0.788200
     26 N6          12.0380    -6.9530     1.3410 nv         1 0Y0      -0.983500
     27 H2           2.8190     0.6570     1.2270 hx         1 0Y0       0.104700
     28 H3           0.5440     1.2540     2.0530 hn         1 0Y0       0.438467
     29 H4           0.4600    -0.2640     2.6530 hn         1 0Y0       0.438467
     30 H6           1.5730    -2.0570     1.7890 hc         1 0Y0       0.095200
     31 H7           3.0110    -1.8030     0.7900 hc         1 0Y0       0.095200
     32 H8           4.1630    -0.7610     2.7150 h1         1 0Y0       0.015700
     33 H9           2.7250    -1.0160     3.7140 h1         1 0Y0       0.015700
     34 H10          2.9620    -3.3560     3.3230 hn         1 0Y0       0.360800
     35 H12          5.4640    -2.1540     4.2350 h1         1 0Y0       0.039200
     36 H13          4.0260    -2.4090     5.2330 h1         1 0Y0       0.039200
     37 H14          4.1890    -4.8730     4.7400 h1         1 0Y0       0.077700
     38 H15          5.9490    -3.2670     6.4060 h1         1 0Y0       0.043700
     39 H16          4.9760    -4.6440     7.7110 ho         1 0Y0       0.404000
     40 H17          7.9350    -4.0310     5.4400 h1         1 0Y0       0.058700
     41 H18          8.2970    -5.3410     7.1430 ho         1 0Y0       0.405000
     42 H19          6.4690    -6.5170     4.4290 h2         1 0Y0       0.116700
     43 H20          8.0240    -3.7970     2.2700 h5         1 0Y0       0.088800
     44 H21         10.2100    -9.5410     4.4390 h5         1 0Y0       0.062100
     45 H22         12.0000    -6.1090     0.8050 hn         1 0Y0       0.450300
     46 H23         12.7920    -7.5980     1.2060 hn         1 0Y0       0.450300
     47 HN3          1.6310     0.7520     3.1670 hn         1 0Y0       0.438467
@<TRIPOS>BOND
     1     3     2 1   
     2     2     4 1   
     3     2     1 1   
     4     4     5 1   
     5     4     6 1   
     6     6     7 1   
     7     7     8 1   
     8     8     9 1   
     9     9    10 1   
    10    12    10 1   
    11    12    13 1   
    12    12    14 1   
    13    10    11 1   
    14    14    15 1   
    15    14    16 1   
    16    11    16 1   
    17    16    17 1   
    18    18    17 1   
    19    18    19 2   
    20    17    21 1   
    21    19    20 1   
    22    21    22 ar  
    23    21    20 ar  
    24    22    23 ar  
    25    20    25 ar  
    26    23    24 ar  
    27    25    24 ar  
    28    25    26 1   
    29     4    27 1   
    30     5    28 1   
    31     5    29 1   
    32     6    30 1   
    33     6    31 1   
    34     7    32 1   
    35     7    33 1   
    36     8    34 1   
    37     9    35 1   
    38     9    36 1   
    39    10    37 1   
    40    12    38 1   
    41    13    39 1   
    42    14    40 1   
    43    15    41 1   
    44    16    42 1   
    45    18    43 1   
    46    23    44 1   
    47    26    45 1   
    48    26    46 1   
    49    47     5 1   
@<TRIPOS>SUBSTRUCTURE
     1 0Y0         1 TEMP              0 ****  ****    0 ROOT
