@<TRIPOS>MOLECULE
0Y1
   68    72     1     0     0
SMALL
bcc


@<TRIPOS>ATOM
      1 CBC         -1.1650    -0.2810    -0.5920 ca         1 0Y1      -0.111800
      2 CBG          0.2240    -0.2200    -0.4450 ca         1 0Y1      -0.136000
      3 CBH          0.8300    -0.9940     0.5320 ca         1 0Y1      -0.129000
      4 CBI          0.0750    -1.8340     1.3730 ca         1 0Y1      -0.106000
      5 CBJ         -1.3040    -1.9140     1.2720 ca         1 0Y1      -0.119000
      6 CBD         -1.9330    -1.1300     0.2910 ca         1 0Y1      -0.047200
      7 NBE         -3.2850    -0.9900    -0.0400 na         1 0Y1      -0.173400
      8 CBF         -3.3930    -0.0680    -1.0740 cc         1 0Y1      -0.060100
      9 CBB         -2.1220     0.3730    -1.4620 cd         1 0Y1      -0.224400
     10 CBA         -1.8170     1.3510    -2.5100 c3         1 0Y1      -0.023200
     11 CAZ         -1.5530     0.7010    -3.8690 c3         1 0Y1       0.092800
     12 NAR         -0.4210    -0.2900    -3.8310 nx         1 0Y1      -0.663400
     13 CAS         -0.6650    -1.4900    -4.6930 c3         1 0Y1       0.135800
     14 CB          -0.3880    -1.3950    -6.1850 c3         1 0Y1      -0.095400
     15 CA          -1.5040    -0.7890    -7.0160 c3         1 0Y1      -0.079500
     16 C           -1.3150     0.7970    -7.2450 c          1 0Y1       0.937600
     17 O           -2.0490     1.2630    -8.1390 o          1 0Y1      -0.758300
     18 OXT         -0.4640     1.3590    -6.5230 o          1 0Y1      -0.758300
     19 N           -1.5920    -1.3940    -8.3820 nz         1 0Y1      -0.823600
     20 CAF          0.8820     0.3990    -4.0740 c3         1 0Y1       0.076800
     21 CAA          2.1180    -0.4170    -3.6820 c3         1 0Y1       0.079100
     22 OAE          2.2050    -1.6060    -4.4620 os         1 0Y1      -0.446600
     23 CAB          3.3980     0.4210    -3.9000 c3         1 0Y1       0.097100
     24 OAH          4.0220     0.7290    -2.6810 oh         1 0Y1      -0.571800
     25 CAC          4.2950    -0.4340    -4.8240 c3         1 0Y1       0.084100
     26 OAI          5.3970    -0.9350    -4.0940 oh         1 0Y1      -0.582800
     27 CAD          3.4440    -1.6820    -5.2080 c3         1 0Y1       0.249800
     28 N9           3.1660    -1.8020    -6.6130 na         1 0Y1      -0.286000
     29 C8           2.6870    -0.7970    -7.5030 cc         1 0Y1       0.410700
     30 N7           2.2130    -1.2780    -8.6570 nd         1 0Y1      -0.547100
     31 C5           2.3350    -2.6750    -8.5550 ca         1 0Y1      -0.251200
     32 C4           2.9160    -3.0310    -7.2650 ca         1 0Y1       0.466800
     33 N3           3.1520    -4.3130    -6.8720 nb         1 0Y1      -0.714000
     34 C2           2.8080    -5.2230    -7.8180 ca         1 0Y1       0.692900
     35 N1           2.2740    -5.0340    -9.0530 nb         1 0Y1      -0.760000
     36 C6           2.0220    -3.7460    -9.4530 ca         1 0Y1       0.719200
     37 N6           1.3880    -3.4750   -10.6580 nv         1 0Y1      -0.927500
     38 H1           0.8170     0.4660    -1.0670 ha         1 0Y1       0.122000
     39 H2           1.9210    -0.9460     0.6700 ha         1 0Y1       0.142000
     40 H3           0.5980    -2.4300     2.1380 ha         1 0Y1       0.150000
     41 H4          -1.8880    -2.5590     1.9440 ha         1 0Y1       0.150000
     42 H5          -4.0370    -1.3790     0.4680 hn         1 0Y1       0.315700
     43 H6          -4.3710     0.2200    -1.4690 h4         1 0Y1       0.179000
     44 H7          -0.9350     1.9780    -2.2040 hc         1 0Y1       0.083700
     45 H8          -2.6850     2.0520    -2.6600 hc         1 0Y1       0.083700
     46 H9          -2.4780     0.1550    -4.2050 hx         1 0Y1       0.118200
     47 H10         -1.3120     1.4990    -4.6370 hx         1 0Y1       0.118200
     48 H12          0.0270    -2.2940    -4.2880 hx         1 0Y1       0.098700
     49 H13         -1.7310    -1.8110    -4.5170 hx         1 0Y1       0.098700
     50 H14         -0.1750    -2.4550    -6.5080 hc         1 0Y1       0.085700
     51 H15          0.5510    -0.8040    -6.3710 hc         1 0Y1       0.085700
     52 H16         -2.5050    -0.9280    -6.5220 hx         1 0Y1       0.086700
     53 H18         -2.1400    -0.7260    -8.9610 hn         1 0Y1       0.460133
     54 H19         -0.6540    -1.4790    -8.7830 hn         1 0Y1       0.460133
     55 H21          0.8800     1.3370    -3.4420 hx         1 0Y1       0.132700
     56 H22          0.9350     0.7110    -5.1600 hx         1 0Y1       0.132700
     57 H23          2.0480    -0.7520    -2.6060 h1         1 0Y1       0.091700
     58 H24          3.1680     1.4200    -4.3640 h1         1 0Y1       0.107700
     59 H25          4.4200    -0.0830    -2.3260 ho         1 0Y1       0.430000
     60 H26          4.6340     0.1530    -5.7160 h1         1 0Y1       0.086700
     61 H27          6.0780    -0.2470    -4.0930 ho         1 0Y1       0.438000
     62 H28          3.9500    -2.6370    -4.8580 h2         1 0Y1       0.152700
     63 H29          2.7490     0.2710    -7.2480 h5         1 0Y1       0.087800
     64 H30          2.9980    -6.2870    -7.5460 h5         1 0Y1       0.073100
     65 H31          1.6050    -2.5840   -11.0520 hn         1 0Y1       0.431800
     66 H32          1.3440    -4.2230   -11.3170 hn         1 0Y1       0.431800
     67 HN3         -2.0430    -2.3060    -8.3680 hn         1 0Y1       0.460133
     68 HAR1        -0.3860    -0.6600    -2.8600 hn         1 0Y1       0.456800
@<TRIPOS>BOND
     1     1     2 ar  
     2     1     6 ar  
     3     1     9 1   
     4     2     3 ar  
     5     2    38 1   
     6     3     4 ar  
     7     3    39 1   
     8     4     5 ar  
     9     4    40 1   
    10     5     6 ar  
    11     5    41 1   
    12     6     7 1   
    13     7     8 1   
    14     7    42 1   
    15     8     9 2   
    16     8    43 1   
    17     9    10 1   
    18    10    11 1   
    19    10    44 1   
    20    10    45 1   
    21    11    12 1   
    22    11    46 1   
    23    11    47 1   
    24    12    13 1   
    25    12    20 1   
    26    12    68 1   
    27    13    14 1   
    28    13    48 1   
    29    13    49 1   
    30    14    15 1   
    31    14    50 1   
    32    14    51 1   
    33    15    16 1   
    34    15    19 1   
    35    15    52 1   
    36    16    17 1   
    37    16    18 1   
    38    19    53 1   
    39    19    54 1   
    40    19    67 1   
    41    20    21 1   
    42    20    55 1   
    43    20    56 1   
    44    21    22 1   
    45    21    23 1   
    46    21    57 1   
    47    22    27 1   
    48    23    24 1   
    49    23    25 1   
    50    23    58 1   
    51    24    59 1   
    52    25    26 1   
    53    25    27 1   
    54    25    60 1   
    55    26    61 1   
    56    27    28 1   
    57    27    62 1   
    58    28    29 1   
    59    28    32 1   
    60    29    30 2   
    61    29    63 1   
    62    30    31 1   
    63    31    32 ar  
    64    31    36 ar  
    65    32    33 ar  
    66    33    34 ar  
    67    34    35 ar  
    68    34    64 1   
    69    35    36 ar  
    70    36    37 1   
    71    37    65 1   
    72    37    66 1   
@<TRIPOS>SUBSTRUCTURE
     1 0Y1         1 TEMP              0 ****  ****    0 ROOT
