@<TRIPOS>MOLECULE
0Y1
   67    71     1     0     0
SMALL
bcc


@<TRIPOS>ATOM
      1 CBC          0.0000     0.0000     0.0000 ca         1 0Y1      -0.096800
      2 CBG          1.3950     0.0000     0.0000 ca         1 0Y1      -0.055000
      3 CBH          2.0740     0.0000     1.1870 ca         1 0Y1      -0.127000
      4 CBI          1.3850    -0.0010     2.3920 ca         1 0Y1      -0.084000
      5 CBJ          0.0080    -0.0010     2.4150 ca         1 0Y1      -0.095000
      6 CBD         -0.7030    -0.0010     1.2190 ca         1 0Y1      -0.225200
      7 NBE         -2.0460    -0.0010     0.9140 na         1 0Y1       0.360600
      8 CBF         -2.2140     0.0000    -0.4440 cc         1 0Y1      -0.252100
      9 CBB         -1.0180     0.0060    -1.0540 cd         1 0Y1      -0.166400
     10 CBA         -0.7700     0.0080    -2.5400 c3         1 0Y1       0.071800
     11 CAZ         -0.5560    -1.4270    -3.0240 c3         1 0Y1       0.137800
     12 NAR         -0.3140    -1.4250    -4.4720 n3         1 0Y1      -0.518600
     13 CAS          0.9530    -0.7540    -4.7940 c3         1 0Y1       0.119800
     14 CB           0.9860    -0.4120    -6.2840 c3         1 0Y1      -0.028400
     15 CA           2.3400     0.2090    -6.6350 c3         1 0Y1      -0.204500
     16 C            2.4250     0.4180    -8.1260 c          1 0Y1       0.957600
     17 O            2.2070     1.5090    -8.5950 o          1 0Y1      -0.817300
     18 OXT          2.7430    -0.6090    -8.9300 o          1 0Y1      -0.817300
     19 N            2.4790     1.5000    -5.9510 nz         1 0Y1       0.084400
     20 CAF         -0.3390    -2.7900    -5.0130 c3         1 0Y1       0.131800
     21 CAA         -1.7880    -3.2720    -5.1150 c3         1 0Y1       0.168100
     22 OAE         -2.5170    -2.4380    -6.0300 os         1 0Y1      -0.383600
     23 CAB         -1.8250    -4.7070    -5.6730 c3         1 0Y1       0.124100
     24 OAH         -2.4380    -5.5940    -4.7350 oh         1 0Y1      -0.553800
     25 CAC         -2.6870    -4.5940    -6.9540 c3         1 0Y1       0.121100
     26 OAI         -3.5730    -5.7090    -7.0730 oh         1 0Y1      -0.540800
     27 CAD         -3.4760    -3.2850    -6.7000 c3         1 0Y1       0.154800
     28 N9          -3.9000    -2.6830    -7.9660 na         1 0Y1       0.198000
     29 C8          -3.1990    -1.7760    -8.7030 cc         1 0Y1       0.271700
     30 N7          -3.8700    -1.4550    -9.7710 nd         1 0Y1      -0.485100
     31 C5          -5.0430    -2.1340    -9.7860 ca         1 0Y1      -0.182200
     32 C4          -5.0740    -2.9340    -8.6320 ca         1 0Y1       0.231800
     33 N3          -6.1290    -3.7110    -8.4120 nb         1 0Y1      -0.607000
     34 C2          -7.1330    -3.7350    -9.2630 ca         1 0Y1       0.632900
     35 N1          -7.1480    -3.0040   -10.3630 nb         1 0Y1      -0.661000
     36 C6          -6.1410    -2.1910   -10.6620 ca         1 0Y1       0.597200
     37 N6          -6.1650    -1.4290   -11.8170 nv         1 0Y1      -0.644500
     38 H1           1.9390     0.0010    -0.9370 ha         1 0Y1       0.089000
     39 H2           3.1570     0.0000     1.1870 ha         1 0Y1       0.102000
     40 H3           1.9370    -0.0010     3.3240 ha         1 0Y1       0.103000
     41 H4          -0.5200    -0.0020     3.3610 ha         1 0Y1       0.102000
     42 H5          -2.7880    -0.0050     1.5850 hn         1 0Y1       0.116700
     43 H6          -3.1710    -0.0030    -0.9520 h4         1 0Y1       0.145000
     44 H7           0.1120     0.5980    -2.7580 hc         1 0Y1       0.015200
     45 H8          -1.6250     0.4360    -3.0480 hc         1 0Y1       0.015200
     46 H9           0.3000    -1.8550    -2.5150 h1         1 0Y1       0.020700
     47 H10         -1.4380    -2.0170    -2.8050 h1         1 0Y1       0.020700
     48 H12          1.7800    -1.4130    -4.5570 h1         1 0Y1       0.004700
     49 H13          1.0380     0.1560    -4.2120 h1         1 0Y1       0.004700
     50 H14          0.8400    -1.3140    -6.8650 hc         1 0Y1       0.061700
     51 H15          0.1950     0.2940    -6.5090 hc         1 0Y1       0.061700
     52 H16          3.1340    -0.4560    -6.3180 hx         1 0Y1       0.084700
     53 H18          3.1970     2.0380    -6.3950 hn         1 0Y1       0.211133
     54 H19          1.6120     1.9980    -5.9970 hn         1 0Y1       0.211133
     55 H21          0.2160    -3.4490    -4.3560 h1         1 0Y1       0.027200
     56 H22          0.1140    -2.7960    -5.9970 h1         1 0Y1       0.027200
     57 H23         -2.2590    -3.2450    -4.1400 h1         1 0Y1       0.046700
     58 H24         -0.8250    -5.0410    -5.9210 h1         1 0Y1       0.016700
     59 H25         -1.9190    -6.3780    -4.6580 ho         1 0Y1       0.392000
     60 H26         -2.0580    -4.4970    -7.8310 h1         1 0Y1       0.028700
     61 H27         -3.1690    -6.3750    -7.6050 ho         1 0Y1       0.391000
     62 H28         -4.3270    -3.4740    -6.0570 h2         1 0Y1       0.070700
     63 H29         -2.2260    -1.3800    -8.4390 h5         1 0Y1       0.044800
     64 H30         -7.9750    -4.3850    -9.0570 h5         1 0Y1      -0.001900
     65 H31         -6.5750    -0.5170   -11.8050 hn         1 0Y1       0.281300
     66 H32         -5.8110    -1.8080   -12.6730 hn         1 0Y1       0.281300
     67 HN3          2.7140     1.3450    -4.9900 hn         1 0Y1       0.211133
@<TRIPOS>BOND
     1     1     2 ar  
     2     1     6 ar  
     3     1     9 1   
     4     2     3 ar  
     5     2    38 1   
     6     3     4 ar  
     7     3    39 1   
     8     4     5 ar  
     9     4    40 1   
    10     5     6 ar  
    11     5    41 1   
    12     6     7 1   
    13     7     8 1   
    14     7    42 1   
    15     8     9 2   
    16     8    43 1   
    17     9    10 1   
    18    10    11 1   
    19    10    44 1   
    20    10    45 1   
    21    11    12 1   
    22    11    46 1   
    23    11    47 1   
    24    12    13 1   
    25    12    20 1   
    26    13    14 1   
    27    13    48 1   
    28    13    49 1   
    29    14    15 1   
    30    14    50 1   
    31    14    51 1   
    32    15    16 1   
    33    15    19 1   
    34    15    52 1   
    35    16    17 1   
    36    16    18 1   
    37    19    53 1   
    38    19    54 1   
    39    19    67 1   
    40    20    21 1   
    41    20    55 1   
    42    20    56 1   
    43    21    22 1   
    44    21    23 1   
    45    21    57 1   
    46    22    27 1   
    47    23    24 1   
    48    23    25 1   
    49    23    58 1   
    50    24    59 1   
    51    25    26 1   
    52    25    27 1   
    53    25    60 1   
    54    26    61 1   
    55    27    28 1   
    56    27    62 1   
    57    28    29 1   
    58    28    32 1   
    59    29    30 2   
    60    29    63 1   
    61    30    31 1   
    62    31    32 ar  
    63    31    36 ar  
    64    32    33 ar  
    65    33    34 ar  
    66    34    35 ar  
    67    34    64 1   
    68    35    36 ar  
    69    36    37 1   
    70    37    65 1   
    71    37    66 1   
@<TRIPOS>SUBSTRUCTURE
     1 0Y1         1 TEMP              0 ****  ****    0 ROOT
