@<TRIPOS>MOLECULE
molecule
   67    71     1     0     0
SMALL
bcc


@<TRIPOS>ATOM
      1 CBC          0.0000     0.0000     0.0000 ca         1 0Y1      -0.099800
      2 CBG          1.3950     0.0000     0.0000 ca         1 0Y1      -0.088000
      3 CBH          2.0740     0.0000     1.1870 ca         1 0Y1      -0.154000
      4 CBI          1.3850    -0.0010     2.3920 ca         1 0Y1      -0.108000
      5 CBJ          0.0080    -0.0010     2.4150 ca         1 0Y1      -0.137000
      6 CBD         -0.7030    -0.0010     1.2190 ca         1 0Y1      -0.037200
      7 NBE         -2.0460    -0.0010     0.9140 na         1 0Y1      -0.179400
      8 CBF         -2.2140     0.0000    -0.4440 cc         1 0Y1      -0.083100
      9 CBB         -1.0180     0.0060    -1.0540 cd         1 0Y1      -0.171400
     10 CBA         -0.7700     0.0080    -2.5400 c3         1 0Y1       0.002800
     11 CAZ         -0.5560    -1.4270    -3.0240 c3         1 0Y1       0.157800
     12 NAR         -0.3140    -1.4250    -4.4720 n3         1 0Y1      -0.716600
     13 CAS          0.9530    -0.7540    -4.7940 c3         1 0Y1       0.140800
     14 CB           0.9860    -0.4120    -6.2840 c3         1 0Y1      -0.089400
     15 CA           2.3400     0.2090    -6.6350 c3         1 0Y1      -0.022500
     16 C            2.4250     0.4180    -8.1260 c          1 0Y1       0.870600
     17 O            2.2070     1.5090    -8.5950 o          1 0Y1      -0.774800
     18 OXT          2.7430    -0.6090    -8.9300 o          1 0Y1      -0.774800
     19 N            2.4790     1.5000    -5.9510 nz         1 0Y1      -0.790600
     20 CAF         -0.3390    -2.7900    -5.0130 c3         1 0Y1       0.156800
     21 CAA         -1.7880    -3.2720    -5.1150 c3         1 0Y1       0.138100
     22 OAE         -2.5170    -2.4380    -6.0300 os         1 0Y1      -0.398600
     23 CAB         -1.8250    -4.7070    -5.6730 c3         1 0Y1       0.082100
     24 OAH         -2.4380    -5.5940    -4.7350 oh         1 0Y1      -0.574800
     25 CAC         -2.6870    -4.5940    -6.9540 c3         1 0Y1       0.085100
     26 OAI         -3.5730    -5.7090    -7.0730 oh         1 0Y1      -0.560800
     27 CAD         -3.4760    -3.2850    -6.7000 c3         1 0Y1       0.261800
     28 N9          -3.9000    -2.6830    -7.9660 na         1 0Y1      -0.259000
     29 C8          -3.1990    -1.7760    -8.7030 cc         1 0Y1       0.445700
     30 N7          -3.8700    -1.4550    -9.7710 nd         1 0Y1      -0.573100
     31 C5          -5.0430    -2.1340    -9.7860 ca         1 0Y1      -0.156200
     32 C4          -5.0740    -2.9340    -8.6320 ca         1 0Y1       0.447800
     33 N3          -6.1290    -3.7110    -8.4120 nb         1 0Y1      -0.743000
     34 C2          -7.1330    -3.7350    -9.2630 ca         1 0Y1       0.698900
     35 N1          -7.1480    -3.0040   -10.3630 nb         1 0Y1      -0.775000
     36 C6          -6.1410    -2.1910   -10.6620 ca         1 0Y1       0.773200
     37 N6          -6.1650    -1.4290   -11.8170 nv         1 0Y1      -1.071500
     38 H1           1.9390     0.0010    -0.9370 ha         1 0Y1       0.116000
     39 H2           3.1570     0.0000     1.1870 ha         1 0Y1       0.128000
     40 H3           1.9370    -0.0010     3.3240 ha         1 0Y1       0.133000
     41 H4          -0.5200    -0.0020     3.3610 ha         1 0Y1       0.129000
     42 H5          -2.7880    -0.0050     1.5850 hn         1 0Y1       0.300700
     43 H6          -3.1710    -0.0030    -0.9520 h4         1 0Y1       0.171000
     44 H7           0.1120     0.5980    -2.7580 hc         1 0Y1       0.046700
     45 H8          -1.6250     0.4360    -3.0480 hc         1 0Y1       0.046700
     46 H9           0.3000    -1.8550    -2.5150 h1         1 0Y1       0.044700
     47 H10         -1.4380    -2.0170    -2.8050 h1         1 0Y1       0.044700
     48 H12          1.7800    -1.4130    -4.5570 h1         1 0Y1       0.024700
     49 H13          1.0380     0.1560    -4.2120 h1         1 0Y1       0.024700
     50 H14          0.8400    -1.3140    -6.8650 hc         1 0Y1       0.092200
     51 H15          0.1950     0.2940    -6.5090 hc         1 0Y1       0.092200
     52 H16          3.1340    -0.4560    -6.3180 hx         1 0Y1       0.100700
     53 H18          3.1970     2.0380    -6.3950 hn         1 0Y1       0.439800
     54 H19          1.6120     1.9980    -5.9970 hn         1 0Y1       0.439800
     55 H21          0.2160    -3.4490    -4.3560 h1         1 0Y1       0.050200
     56 H22          0.1140    -2.7960    -5.9970 h1         1 0Y1       0.050200
     57 H23         -2.2590    -3.2450    -4.1400 h1         1 0Y1       0.078700
     58 H24         -0.8250    -5.0410    -5.9210 h1         1 0Y1       0.049700
     59 H25         -1.9190    -6.3780    -4.6580 ho         1 0Y1       0.408000
     60 H26         -2.0580    -4.4970    -7.8310 h1         1 0Y1       0.063700
     61 H27         -3.1690    -6.3750    -7.6050 ho         1 0Y1       0.406000
     62 H28         -4.3270    -3.4740    -6.0570 h2         1 0Y1       0.112700
     63 H29         -2.2260    -1.3800    -8.4390 h5         1 0Y1       0.093800
     64 H30         -7.9750    -4.3850    -9.0570 h5         1 0Y1       0.061100
     65 H31         -6.5750    -0.5170   -11.8050 hn         1 0Y1       0.444300
     66 H32         -5.8110    -1.8080   -12.6730 hn         1 0Y1       0.444300
     67 HN3          2.7140     1.3450    -4.9900 hn         1 0Y1       0.439800
@<TRIPOS>BOND
     1    19    15 1
     2    15    16 1
     3    15    14 1
     4    17    16 1
     5    16    18 1
     6    14    13 1
     7    13    12 1
     8     8     7 1
     9     8     9 2
    10     7     6 1
    11    12    11 1
    12    12    20 1
    13    11    10 1
    14     9    10 1
    15     9     1 1
    16     6     5 ar
    17     6     1 ar
    18    20    21 1
    19     5     4 ar
    20     1     2 ar
    21    21    22 1
    22    21    23 1
    23     4     3 ar
    24    22    27 1
    25     2     3 ar
    26    24    23 1
    27    23    25 1
    28    27    25 1
    29    27    28 1
    30    25    26 1
    31    33    32 ar
    32    33    34 ar
    33    28    32 1
    34    28    29 1
    35    32    31 ar
    36    34    35 ar
    37    29    30 2
    38    31    30 1
    39    31    36 ar
    40    35    36 ar
    41    36    37 1
    42     2    38 1
    43     3    39 1
    44     4    40 1
    45     5    41 1
    46     7    42 1
    47     8    43 1
    48    10    44 1
    49    10    45 1
    50    11    46 1
    51    11    47 1
    52    13    48 1
    53    13    49 1
    54    14    50 1
    55    14    51 1
    56    15    52 1
    57    19    53 1
    58    19    54 1
    59    20    55 1
    60    20    56 1
    61    21    57 1
    62    23    58 1
    63    24    59 1
    64    25    60 1
    65    26    61 1
    66    27    62 1
    67    29    63 1
    68    34    64 1
    69    37    65 1
    70    37    66 1
    71    67    19 1
@<TRIPOS>SUBSTRUCTURE
     1 0Y1         1 TEMP              0 ****  ****    0 ROOT
