@<TRIPOS>MOLECULE
0Y2
   66    70     1     0     0
SMALL
bcc


@<TRIPOS>ATOM
      1 CBC          0.0000     0.0000     0.0000 ca         1 0Y2      -0.071800
      2 CBG          1.4110     0.0000     0.0000 ca         1 0Y2      -0.074000
      3 CBH          2.1010     0.0000     1.1740 ca         1 0Y2      -0.100000
      4 CBI          1.4300    -0.0010     2.3880 ca         1 0Y2      -0.092000
      5 CBJ          0.0550    -0.0020     2.4180 ca         1 0Y2      -0.048000
      6 CBD         -0.6740    -0.0010     1.2250 ca         1 0Y2       0.027900
      7 S1E         -2.4110    -0.0080     0.9450 ss         1 0Y2      -0.207500
      8 CBF         -2.1980    -0.0100    -0.7950 cc         1 0Y2       0.004600
      9 CBB         -0.9220    -0.0060    -1.1240 cd         1 0Y2      -0.092400
     10 CBA         -0.4540    -0.0070    -2.5560 c3         1 0Y2       0.038800
     11 CAZ         -0.1700    -1.4430    -2.9990 c3         1 0Y2       0.139800
     12 NAR          0.2860    -1.4430    -4.3960 n3         1 0Y2      -0.518600
     13 CAS          1.5870    -0.7740    -4.5250 c3         1 0Y2       0.120800
     14 CB           1.8420    -0.4350    -5.9950 c3         1 0Y2      -0.028400
     15 CA           3.2350     0.1830    -6.1420 c3         1 0Y2      -0.202500
     16 C            3.5420     0.3900    -7.6020 c          1 0Y2       0.957600
     17 O            3.4030     1.4810    -8.1000 o          1 0Y2      -0.816800
     18 OXT          3.9690    -0.6400    -8.3500 o          1 0Y2      -0.816800
     19 N            3.2730     1.4760    -5.4460 nz         1 0Y2       0.082400
     20 CAF          0.3420    -2.8100    -4.9310 c3         1 0Y2       0.137800
     21 CAA         -1.0760    -3.2920    -5.2490 c3         1 0Y2       0.167100
     22 OAE         -1.6370    -2.5210    -6.3320 os         1 0Y2      -0.383600
     23 CAB         -1.0450    -4.7450    -5.7730 c3         1 0Y2       0.129100
     24 OAH         -1.3580    -5.6630    -4.7230 oh         1 0Y2      -0.551800
     25 CAC         -2.1400    -4.7740    -6.8620 c3         1 0Y2       0.122100
     26 OAI         -3.1630    -5.7110    -6.5180 oh         1 0Y2      -0.541800
     27 CAD         -2.7040    -3.3360    -6.8670 c3         1 0Y2       0.148800
     28 N9          -3.0270    -2.9190    -8.2340 na         1 0Y2       0.202000
     29 C8          -2.1950    -2.2750    -9.1000 cc         1 0Y2       0.251700
     30 N7          -2.8070    -2.0590   -10.2280 nd         1 0Y2      -0.490100
     31 C5          -4.0670    -2.5500   -10.1570 ca         1 0Y2      -0.244200
     32 C4          -4.2220    -3.1120    -8.8800 ca         1 0Y2       0.271800
     33 N3          -5.3840    -3.6730    -8.5570 nb         1 0Y2      -0.680000
     34 C2          -6.3760    -3.7040    -9.4210 ca         1 0Y2       0.690900
     35 N1          -6.2770    -3.1920   -10.6330 nb         1 0Y2      -0.747000
     36 C6          -5.1570    -2.6030   -11.0420 ca         1 0Y2       0.592200
     37 N6          -5.0630    -2.0690   -12.3160 nv         1 0Y2      -0.479500
     38 H1           1.9490     0.0010    -0.9400 ha         1 0Y2       0.092000
     39 H2           3.1840     0.0000     1.1590 ha         1 0Y2       0.103000
     40 H3           1.9900    -0.0010     3.3150 ha         1 0Y2       0.109000
     41 H4          -0.4650    -0.0020     3.3680 ha         1 0Y2       0.113000
     42 H5          -3.0130    -0.0150    -1.5090 h4         1 0Y2       0.155000
     43 H6          -1.2230     0.4210    -3.1880 hc         1 0Y2       0.022200
     44 H7           0.4510     0.5830    -2.6410 hc         1 0Y2       0.022200
     45 H8          -1.0750    -2.0320    -2.9150 h1         1 0Y2       0.023200
     46 H9           0.6000    -1.8700    -2.3680 h1         1 0Y2       0.023200
     47 H11          1.5840     0.1370    -3.9390 h1         1 0Y2       0.002700
     48 H12          2.3680    -1.4320    -4.1650 h1         1 0Y2       0.002700
     49 H13          1.0960     0.2720    -6.3370 hc         1 0Y2       0.063700
     50 H14          1.7840    -1.3380    -6.5900 hc         1 0Y2       0.063700
     51 H15          3.9720    -0.4820    -5.7080 hx         1 0Y2       0.083700
     52 H17          2.4140     1.9650    -5.6040 hn         1 0Y2       0.211133
     53 H18          4.0360     2.0210    -5.7950 hn         1 0Y2       0.211133
     54 H20          0.7910    -3.4670    -4.1970 h1         1 0Y2       0.029200
     55 H21          0.9370    -2.8190    -5.8360 h1         1 0Y2       0.029200
     56 H22         -1.7090    -3.2230    -4.3720 h1         1 0Y2       0.046700
     57 H23         -0.0770    -4.9690    -6.2060 h1         1 0Y2       0.018700
     58 H24         -0.7440    -6.3790    -4.7380 ho         1 0Y2       0.389000
     59 H25         -1.7080    -5.0130    -7.8260 h1         1 0Y2       0.023700
     60 H26         -3.0680    -6.4880    -7.0430 ho         1 0Y2       0.393000
     61 H27         -3.5780    -3.2730    -6.2310 h2         1 0Y2       0.069700
     62 H28         -1.1740    -1.9850    -8.8810 h5         1 0Y2       0.044800
     63 H29         -7.3070    -4.1750    -9.1290 h5         1 0Y2      -0.005900
     64 H30         -4.2160    -1.6230   -12.6100 hn         1 0Y2       0.277300
     65 H31         -5.8430    -2.1220   -12.9400 hn         1 0Y2       0.277300
     66 HN3          3.3930     1.3230    -4.4640 hn         1 0Y2       0.211133
@<TRIPOS>BOND
     1     1     2 ar  
     2     1     6 ar  
     3     1     9 1   
     4     2     3 ar  
     5     2    38 1   
     6     3     4 ar  
     7     3    39 1   
     8     4     5 ar  
     9     4    40 1   
    10     5     6 ar  
    11     5    41 1   
    12     6     7 1   
    13     7     8 1   
    14     8     9 2   
    15     8    42 1   
    16     9    10 1   
    17    10    11 1   
    18    10    43 1   
    19    10    44 1   
    20    11    12 1   
    21    11    45 1   
    22    11    46 1   
    23    12    13 1   
    24    12    20 1   
    25    13    14 1   
    26    13    47 1   
    27    13    48 1   
    28    14    15 1   
    29    14    49 1   
    30    14    50 1   
    31    15    16 1   
    32    15    19 1   
    33    15    51 1   
    34    16    17 1   
    35    16    18 1   
    36    19    52 1   
    37    19    53 1   
    38    19    66 1   
    39    20    21 1   
    40    20    54 1   
    41    20    55 1   
    42    21    22 1   
    43    21    23 1   
    44    21    56 1   
    45    22    27 1   
    46    23    24 1   
    47    23    25 1   
    48    23    57 1   
    49    24    58 1   
    50    25    26 1   
    51    25    27 1   
    52    25    59 1   
    53    26    60 1   
    54    27    28 1   
    55    27    61 1   
    56    28    29 1   
    57    28    32 1   
    58    29    30 2   
    59    29    62 1   
    60    30    31 1   
    61    31    32 ar  
    62    31    36 ar  
    63    32    33 ar  
    64    33    34 ar  
    65    34    35 ar  
    66    34    63 1   
    67    35    36 ar  
    68    36    37 1   
    69    37    64 1   
    70    37    65 1   
@<TRIPOS>SUBSTRUCTURE
     1 0Y2         1 TEMP              0 ****  ****    0 ROOT
