@<TRIPOS>MOLECULE
0Y2
   67    71     1     0     0
SMALL
bcc


@<TRIPOS>ATOM
      1 CBC          0.7880    -0.1560    -0.8850 ca         1 0Y2      -0.066800
      2 CBG          1.1920     0.9370    -0.1030 ca         1 0Y2      -0.123000
      3 CBH          1.4920     0.7410     1.2330 ca         1 0Y2      -0.115000
      4 CBI          1.3960    -0.5390     1.8130 ca         1 0Y2      -0.123000
      5 CBJ          1.0030    -1.6300     1.0570 ca         1 0Y2      -0.076000
      6 CBD          0.6970    -1.4500    -0.2980 ca         1 0Y2      -0.100100
      7 S1E          0.2090    -2.5940    -1.4410 ss         1 0Y2       0.113500
      8 CBF          0.1040    -1.4800    -2.6780 cc         1 0Y2      -0.125400
      9 CBB          0.4330    -0.2040    -2.2830 cd         1 0Y2      -0.149400
     10 CBA          0.4450     0.9650    -3.1820 c3         1 0Y2      -0.022200
     11 CAZ         -0.9680     1.5570    -3.2280 c3         1 0Y2       0.090800
     12 NAR         -1.0210     2.9390    -3.8300 nx         1 0Y2      -0.674400
     13 CAS         -1.4840     2.9410    -5.2550 c3         1 0Y2       0.088800
     14 CB          -0.4450     2.4360    -6.2580 c3         1 0Y2      -0.106400
     15 CA          -0.9360     1.2790    -7.1160 c3         1 0Y2      -0.081500
     16 C           -1.5520     0.1570    -6.1450 c          1 0Y2       0.922600
     17 O           -2.7850     0.2910    -5.9310 o          1 0Y2      -0.750300
     18 OXT         -0.7320    -0.6510    -5.6840 o          1 0Y2      -0.750300
     19 N           -1.9750     1.6590    -8.1170 nz         1 0Y2      -0.827600
     20 CAF         -1.8900     3.8410    -3.0050 c3         1 0Y2       0.088800
     21 CAA         -1.1510     4.3710    -1.7650 c3         1 0Y2       0.068100
     22 OAE          0.0820     4.9610    -2.1700 os         1 0Y2      -0.429600
     23 CAB         -1.9860     5.4470    -1.0330 c3         1 0Y2       0.101100
     24 OAH         -2.2500     5.0800     0.2940 oh         1 0Y2      -0.565800
     25 CAC         -1.1410     6.7440    -1.1290 c3         1 0Y2       0.083100
     26 OAI         -0.5130     6.9970     0.1100 oh         1 0Y2      -0.576800
     27 CAD          0.0090     6.4040    -2.1270 c3         1 0Y2       0.248800
     28 N9          -0.1910     6.9390    -3.4450 na         1 0Y2      -0.301000
     29 C8          -1.4180     7.1520    -4.1370 cc         1 0Y2       0.367700
     30 N7          -1.2620     7.4600    -5.4280 nd         1 0Y2      -0.520100
     31 C5           0.1240     7.4370    -5.6510 ca         1 0Y2      -0.252200
     32 C4           0.8210     7.0950    -4.4150 ca         1 0Y2       0.472800
     33 N3           2.1740     6.9850    -4.3110 nb         1 0Y2      -0.726000
     34 C2           2.8100     7.2550    -5.4810 ca         1 0Y2       0.700900
     35 N1           2.2990     7.5990    -6.6900 nb         1 0Y2      -0.771000
     36 C6           0.9320     7.7000    -6.8080 ca         1 0Y2       0.750200
     37 N6           0.3420     7.9800    -8.0180 nv         1 0Y2      -0.931500
     38 H1           1.2790     1.9350    -0.5570 ha         1 0Y2       0.118000
     39 H2           1.8170     1.5870     1.8570 ha         1 0Y2       0.137000
     40 H3           1.6420    -0.6670     2.8780 ha         1 0Y2       0.144000
     41 H4           0.9330    -2.6310     1.5100 ha         1 0Y2       0.147000
     42 H5          -0.1960    -1.7510    -3.6990 h4         1 0Y2       0.212000
     43 H6           0.7440     0.6300    -4.2140 hc         1 0Y2       0.072200
     44 H7           1.1900     1.7220    -2.8160 hc         1 0Y2       0.072200
     45 H8          -1.3670     1.6210    -2.1750 hx         1 0Y2       0.122700
     46 H9          -1.6410     0.8690    -3.8230 hx         1 0Y2       0.122700
     47 H11         -1.7450     4.0060    -5.5240 hx         1 0Y2       0.112700
     48 H12         -2.4290     2.3150    -5.3000 hx         1 0Y2       0.112700
     49 H13          0.4760     2.0430    -5.7390 hc         1 0Y2       0.089700
     50 H14         -0.1110     3.2990    -6.8950 hc         1 0Y2       0.089700
     51 H15         -0.0620     0.8320    -7.6680 hx         1 0Y2       0.120700
     52 H17         -1.8710     2.6180    -8.4380 hn         1 0Y2       0.454467
     53 H18         -1.9260     1.0190    -8.9120 hn         1 0Y2       0.454467
     54 H20         -2.8100     3.2730    -2.6880 hx         1 0Y2       0.104200
     55 H21         -2.2030     4.7190    -3.6410 hx         1 0Y2       0.104200
     56 H22         -0.8760     3.5300    -1.0670 h1         1 0Y2       0.116700
     57 H23         -2.9990     5.5800    -1.5010 h1         1 0Y2       0.095700
     58 H24         -1.4140     5.0940     0.7870 ho         1 0Y2       0.434000
     59 H25         -1.7620     7.6180    -1.4540 h1         1 0Y2       0.085700
     60 H26         -1.1380     7.4970     0.6530 ho         1 0Y2       0.438000
     61 H27          1.0240     6.7290    -1.7380 h2         1 0Y2       0.164700
     62 H28         -2.3790     7.1260    -3.6100 h5         1 0Y2       0.069800
     63 H29          3.9220     7.1920    -5.4430 h5         1 0Y2       0.072100
     64 H30          0.9150     8.3120    -8.7610 hn         1 0Y2       0.443800
     65 H31         -0.5990     8.2980    -7.9970 hn         1 0Y2       0.443800
     66 HN3         -2.8990     1.5300    -7.6550 hn         1 0Y2       0.454467
     67 HAR1        -0.0650     3.3330    -3.8030 hn         1 0Y2       0.456800
@<TRIPOS>BOND
     1     1     2 ar  
     2     1     6 ar  
     3     1     9 1   
     4     2     3 ar  
     5     2    38 1   
     6     3     4 ar  
     7     3    39 1   
     8     4     5 ar  
     9     4    40 1   
    10     5     6 ar  
    11     5    41 1   
    12     6     7 1   
    13     7     8 1   
    14     8     9 2   
    15     8    42 1   
    16     9    10 1   
    17    10    11 1   
    18    10    43 1   
    19    10    44 1   
    20    11    12 1   
    21    11    45 1   
    22    11    46 1   
    23    12    13 1   
    24    12    20 1   
    25    12    67 1   
    26    13    14 1   
    27    13    47 1   
    28    13    48 1   
    29    14    15 1   
    30    14    49 1   
    31    14    50 1   
    32    15    16 1   
    33    15    19 1   
    34    15    51 1   
    35    16    17 1   
    36    16    18 1   
    37    19    52 1   
    38    19    53 1   
    39    19    66 1   
    40    20    21 1   
    41    20    54 1   
    42    20    55 1   
    43    21    22 1   
    44    21    23 1   
    45    21    56 1   
    46    22    27 1   
    47    23    24 1   
    48    23    25 1   
    49    23    57 1   
    50    24    58 1   
    51    25    26 1   
    52    25    27 1   
    53    25    59 1   
    54    26    60 1   
    55    27    28 1   
    56    27    61 1   
    57    28    29 1   
    58    28    32 1   
    59    29    30 2   
    60    29    62 1   
    61    30    31 1   
    62    31    32 ar  
    63    31    36 ar  
    64    32    33 ar  
    65    33    34 ar  
    66    34    35 ar  
    67    34    63 1   
    68    35    36 ar  
    69    36    37 1   
    70    37    64 1   
    71    37    65 1   
@<TRIPOS>SUBSTRUCTURE
     1 0Y2         1 TEMP              0 ****  ****    0 ROOT
