@<TRIPOS>MOLECULE
0Y4
   49    52     1     0     0
SMALL
bcc


@<TRIPOS>ATOM
      1 C1           0.0000     0.0000     0.0000 c3         1 0Y4       0.067200
      2 C2           1.5070     0.0000     0.0000 ca         1 0Y4      -0.123300
      3 C3           2.1970     0.0000     1.1980 ca         1 0Y4      -0.063000
      4 C7           2.2010    -0.0050    -1.2030 ca         1 0Y4      -0.079400
      5 C9           2.1190    -0.4040    -3.5470 c          1 0Y4       0.558100
      6 C11          1.4060    -0.2970    -4.8700 c3         1 0Y4      -0.070100
      7 C13          6.3650     0.6660     1.0090 cc         1 0Y4       0.533200
      8 C14          7.7620     0.5800     1.0750 cc         1 0Y4      -0.348300
      9 C15          8.4250     1.2420     2.0690 cd         1 0Y4       0.007300
     10 N18          5.7010     1.3880     1.9010 nd         1 0Y4      -0.658000
     11 C19          5.8930     2.8510     3.9300 cc         1 0Y4      -0.252300
     12 C20          7.0350     3.2590     4.6480 cc         1 0Y4       0.526500
     13 C22          4.5340     3.1980     4.2200 cg         1 0Y4       0.267500
     14 N23          3.4540     3.4560     4.4590 n1         1 0Y4      -0.428800
     15 N29         11.9030     2.4260     2.2130 nc         1 0Y4      -0.633000
     16 C30         11.3250     5.8600     2.0300 c3         1 0Y4      -0.021400
     17 C4           3.5780     0.0010     1.2030 ca         1 0Y4      -0.106000
     18 C5           4.2790     0.0020     0.0020 ca         1 0Y4      -0.010400
     19 C6           3.5890    -0.0050    -1.2010 ca         1 0Y4      -0.153000
     20 N8           1.5020    -0.0120    -2.4150 ns         1 0Y4      -0.024100
     21 O10          3.2490    -0.8420    -3.5010 o          1 0Y4      -0.641100
     22 N12          5.6770     0.0020     0.0080 nu         1 0Y4      -0.269300
     23 N16          7.7050     1.9750     2.9780 na         1 0Y4       0.473200
     24 C17          6.3440     2.0370     2.8730 cd         1 0Y4       0.293500
     25 N21          8.0920     2.7430     4.0820 nd         1 0Y4      -0.737100
     26 N24          9.7990     1.1730     2.1580 nu         1 0Y4      -0.298300
     27 C25         10.5640     2.3510     2.1320 cc         1 0Y4       0.398200
     28 C26         10.0820     3.6100     2.0230 cd         1 0Y4      -0.447600
     29 N27         11.1690     4.4500     2.0400 na         1 0Y4       0.321100
     30 C28         12.2690     3.6780     2.1590 cd         1 0Y4       0.221400
     31 H1          -0.3610     0.0880     1.0180 hc         1 0Y4       0.007367
     32 H2          -0.3610    -0.9250    -0.4330 hc         1 0Y4       0.007367
     33 H3          -0.3610     0.8370    -0.5850 hc         1 0Y4       0.007367
     34 H4           1.6540     0.0000     2.1350 ha         1 0Y4       0.113000
     35 H5           0.5190    -0.9190    -4.8530 hc         1 0Y4       0.025033
     36 H6           2.0640    -0.6290    -5.6630 hc         1 0Y4       0.025033
     37 H7           1.1210     0.7330    -5.0450 hc         1 0Y4       0.025033
     38 H8           8.3030    -0.0100     0.3460 ha         1 0Y4       0.143000
     39 H9           7.0380     3.7430     5.6170 h4         1 0Y4       0.017800
     40 H10         10.3580     6.3300     1.8990 h1         1 0Y4       0.025033
     41 H11         11.9780     6.1460     1.2150 h1         1 0Y4       0.025033
     42 H12         11.7580     6.1820     2.9700 h1         1 0Y4       0.025033
     43 H13          4.1160     0.0010     2.1430 ha         1 0Y4       0.137000
     44 H14          4.1320    -0.0090    -2.1390 ha         1 0Y4       0.169000
     45 H15          0.6780     0.5460    -2.5200 hn         1 0Y4       0.167500
     46 H16          6.1760    -0.5470    -0.6640 hn         1 0Y4       0.291800
     47 H17         10.2510     0.2850     2.2520 hn         1 0Y4       0.302800
     48 H18          9.0390     3.8880     1.9390 h4         1 0Y4       0.161000
     49 H19         13.2870     4.0460     2.2010 h5         1 0Y4       0.026100
@<TRIPOS>BOND
     1     1     2 1   
     2     1    31 1   
     3     1    32 1   
     4     1    33 1   
     5     2     3 ar  
     6     2     4 ar  
     7     3    17 ar  
     8     3    34 1   
     9     4    19 ar  
    10     4    20 1   
    11     5     6 1   
    12     5    20 1   
    13     5    21 2   
    14     6    35 1   
    15     6    36 1   
    16     6    37 1   
    17     7     8 1   
    18     7    10 2   
    19     7    22 1   
    20     8     9 2   
    21     8    38 1   
    22     9    23 1   
    23     9    26 1   
    24    10    24 1   
    25    11    12 1   
    26    11    13 1   
    27    11    24 2   
    28    12    25 2   
    29    12    39 1   
    30    13    14 3   
    31    15    27 1   
    32    15    30 2   
    33    16    29 1   
    34    16    40 1   
    35    16    41 1   
    36    16    42 1   
    37    17    18 ar  
    38    17    43 1   
    39    18    19 ar  
    40    18    22 1   
    41    19    44 1   
    42    20    45 1   
    43    22    46 1   
    44    23    24 1   
    45    23    25 1   
    46    26    27 1   
    47    26    47 1   
    48    27    28 2   
    49    28    29 1   
    50    28    48 1   
    51    29    30 1   
    52    30    49 1   
@<TRIPOS>SUBSTRUCTURE
     1 0Y4         1 TEMP              0 ****  ****    0 ROOT
