@<TRIPOS>MOLECULE
molecule
   49    52     1     0     0
SMALL
bcc


@<TRIPOS>ATOM
      1 C1           0.0000     0.0000     0.0000 c3         1 0Y4      -0.041800
      2 C2           1.5070     0.0000     0.0000 ca         1 0Y4      -0.122300
      3 C3           2.1970     0.0000     1.1980 ca         1 0Y4      -0.094000
      4 C7           2.2010    -0.0050    -1.2030 ca         1 0Y4       0.061600
      5 C9           2.1190    -0.4040    -3.5470 c          1 0Y4       0.652100
      6 C11          1.4060    -0.2970    -4.8700 c3         1 0Y4      -0.172100
      7 C13          6.3650     0.6660     1.0090 cc         1 0Y4       0.750200
      8 C14          7.7620     0.5800     1.0750 cc         1 0Y4      -0.384300
      9 C15          8.4250     1.2420     2.0690 cd         1 0Y4       0.339300
     10 N18          5.7010     1.3880     1.9010 nd         1 0Y4      -0.772000
     11 C19          5.8930     2.8510     3.9300 cd         1 0Y4      -0.271300
     12 C20          7.0350     3.2590     4.6480 cd         1 0Y4       0.457500
     13 C22          4.5340     3.1980     4.2200 ch         1 0Y4       0.261500
     14 N23          3.4540     3.4560     4.4590 n1         1 0Y4      -0.399800
     15 N29         11.9030     2.4260     2.2130 nc         1 0Y4      -0.722000
     16 C30         11.3250     5.8600     2.0300 c3         1 0Y4       0.029600
     17 C4           3.5780     0.0010     1.2030 ca         1 0Y4      -0.130000
     18 C5           4.2790     0.0020     0.0020 ca         1 0Y4       0.146600
     19 C6           3.5890    -0.0050    -1.2010 ca         1 0Y4      -0.171000
     20 N8           1.5020    -0.0120    -2.4150 ns         1 0Y4      -0.459100
     21 O10          3.2490    -0.8420    -3.5010 o          1 0Y4      -0.602100
     22 N12          5.6770     0.0020     0.0080 nu         1 0Y4      -0.746300
     23 N16          7.7050     1.9750     2.9780 na         1 0Y4      -0.006800
     24 C17          6.3440     2.0370     2.8730 cc         1 0Y4       0.498500
     25 N21          8.0920     2.7430     4.0820 nc         1 0Y4      -0.569100
     26 N24          9.7990     1.1730     2.1580 nu         1 0Y4      -0.768300
     27 C25         10.5640     2.3510     2.1320 cc         1 0Y4       0.567200
     28 C26         10.0820     3.6100     2.0230 cd         1 0Y4      -0.276600
     29 N27         11.1690     4.4500     2.0400 na         1 0Y4      -0.174900
     30 C28         12.2690     3.6780     2.1590 cd         1 0Y4       0.404400
     31 H1          -0.3610     0.0880     1.0180 hc         1 0Y4       0.041367
     32 H2          -0.3610    -0.9250    -0.4330 hc         1 0Y4       0.041367
     33 H3          -0.3610     0.8370    -0.5850 hc         1 0Y4       0.041367
     34 H4           1.6540     0.0000     2.1350 ha         1 0Y4       0.141000
     35 H5           0.5190    -0.9190    -4.8530 hc         1 0Y4       0.064367
     36 H6           2.0640    -0.6290    -5.6630 hc         1 0Y4       0.064367
     37 H7           1.1210     0.7330    -5.0450 hc         1 0Y4       0.064367
     38 H8           8.3030    -0.0100     0.3460 ha         1 0Y4       0.167000
     39 H9           7.0380     3.7430     5.6170 h4         1 0Y4       0.069800
     40 H10         10.3580     6.3300     1.8990 h1         1 0Y4       0.053700
     41 H11         11.9780     6.1460     1.2150 h1         1 0Y4       0.053700
     42 H12         11.7580     6.1820     2.9700 h1         1 0Y4       0.053700
     43 H13          4.1160     0.0010     2.1430 ha         1 0Y4       0.160000
     44 H14          4.1320    -0.0090    -2.1390 ha         1 0Y4       0.181000
     45 H15          0.6780     0.5460    -2.5200 hn         1 0Y4       0.320500
     46 H16          6.1760    -0.5470    -0.6640 hn         1 0Y4       0.464800
     47 H17         10.2510     0.2850     2.2520 hn         1 0Y4       0.478800
     48 H18          9.0390     3.8880     1.9390 h4         1 0Y4       0.185000
     49 H19         13.2870     4.0460     2.2010 h5         1 0Y4       0.068100
@<TRIPOS>BOND
     1    15    30 2   
     2    15    27 1   
     3    30    29 1   
     4    27    26 1   
     5    27    28 2   
     6    29    16 1   
     7    29    28 1   
     8    26     9 1   
     9    25    12 2   
    10    25    23 1   
    11    12    11 1   
    12    23     9 1   
    13    23    24 1   
    14     9     8 2   
    15    11    24 2   
    16    11    13 1   
    17    24    10 1   
    18     8     7 1   
    19    13    14 3   
    20    10     7 2   
    21     7    22 1   
    22    22    18 1   
    23    18    19 ar  
    24    18    17 ar  
    25    19     4 ar  
    26     6     5 1   
    27    17     3 ar  
    28     5    21 2   
    29     5    20 1   
    30     4    20 1   
    31     4     2 ar  
    32     3     2 ar  
    33     2     1 1   
    34     1    31 1   
    35     1    32 1   
    36     1    33 1   
    37     3    34 1   
    38     6    35 1   
    39     6    36 1   
    40     6    37 1   
    41     8    38 1   
    42    12    39 1   
    43    16    40 1   
    44    16    41 1   
    45    16    42 1   
    46    17    43 1   
    47    19    44 1   
    48    20    45 1   
    49    22    46 1   
    50    26    47 1   
    51    28    48 1   
    52    30    49 1   
@<TRIPOS>SUBSTRUCTURE
     1 0Y4         1 TEMP              0 ****  ****    0 ROOT
