@<TRIPOS>MOLECULE
0Y4
   49    52     1     0     0
SMALL
bcc


@<TRIPOS>ATOM
      1 C1          -0.0680    -0.8840     0.0150 c3         1 0Y4      -0.053800
      2 C2           1.3960    -0.6540     0.0370 ca         1 0Y4      -0.121300
      3 C3           2.1280    -0.9740     1.1810 ca         1 0Y4      -0.092000
      4 C7           2.0740    -0.1060    -1.0860 ca         1 0Y4       0.081600
      5 C9           1.6850     0.0810    -3.5540 c          1 0Y4       0.666100
      6 C11          2.9880    -0.5510    -3.9470 c3         1 0Y4      -0.171100
      7 C13          6.5330    -0.4480    -0.6220 cc         1 0Y4       0.721200
      8 C14          7.9170    -0.2070    -0.2590 cc         1 0Y4      -0.390300
      9 C15          8.9570    -0.6240    -1.0930 cd         1 0Y4       0.310300
     10 N18          6.1780    -1.0860    -1.7640 nd         1 0Y4      -0.732000
     11 C19          7.1980    -2.1890    -3.8170 cc         1 0Y4      -0.232300
     12 C20          8.5900    -2.3520    -4.1650 cc         1 0Y4       0.442500
     13 C22          6.0910    -2.6240    -4.5440 cg         1 0Y4       0.257500
     14 N23          5.1670    -2.9870    -5.1530 n1         1 0Y4      -0.397800
     15 N29         10.5590    -1.0640     1.5380 nc         1 0Y4      -0.667000
     16 C30         12.2240     1.7000     3.2480 c3         1 0Y4       0.020600
     17 C4           3.5000    -0.7810     1.2480 ca         1 0Y4      -0.183000
     18 C5           4.1840    -0.2310     0.1430 ca         1 0Y4       0.146600
     19 C6           3.4650     0.1100    -1.0150 ca         1 0Y4      -0.141000
     20 N8           1.3390     0.2720    -2.2190 ns         1 0Y4      -0.487100
     21 O10          0.8550     0.4630    -4.4030 o          1 0Y4      -0.604100
     22 N12          5.5660     0.0590     0.2530 nu         1 0Y4      -0.721300
     23 N16          8.6010    -1.3050    -2.2690 na         1 0Y4      -0.011800
     24 C17          7.1970    -1.4960    -2.5700 cd         1 0Y4       0.484500
     25 N21          9.4060    -1.8140    -3.2310 nd         1 0Y4      -0.582100
     26 N24         10.3050    -0.2990    -0.8500 nu         1 0Y4      -0.668300
     27 C25         10.6990    -0.1180     0.4940 cc         1 0Y4       0.442200
     28 C26         11.3410     1.0470     0.9880 cd         1 0Y4      -0.201600
     29 N27         11.6010     0.8010     2.3340 na         1 0Y4      -0.205900
     30 C28         11.1040    -0.4820     2.6210 cd         1 0Y4       0.402400
     31 H1          -0.4060    -1.4040     0.9450 hc         1 0Y4       0.047033
     32 H2          -0.3570    -1.5180    -0.8610 hc         1 0Y4       0.047033
     33 H3          -0.6180     0.0880    -0.0560 hc         1 0Y4       0.047033
     34 H4           1.6030    -1.4010     2.0510 ha         1 0Y4       0.136000
     35 H5           2.8470    -1.0750    -4.9260 hc         1 0Y4       0.079033
     36 H6           3.3530    -1.2880    -3.1900 hc         1 0Y4       0.079033
     37 H7           3.7570     0.2490    -4.0790 hc         1 0Y4       0.079033
     38 H8           8.1580     0.3160     0.6760 ha         1 0Y4       0.170000
     39 H9           8.9860    -2.8410    -5.0590 h4         1 0Y4       0.062800
     40 H10         11.5080     2.5150     3.5410 h1         1 0Y4       0.060033
     41 H11         12.5390     1.1410     4.1680 h1         1 0Y4       0.060033
     42 H12         13.1280     2.1660     2.7710 h1         1 0Y4       0.060033
     43 H13          4.0410    -1.0560     2.1660 ha         1 0Y4       0.133000
     44 H14          3.9940     0.5590    -1.8720 ha         1 0Y4       0.160000
     45 H15          0.4030     0.5770    -2.0480 hn         1 0Y4       0.323500
     46 H16          5.8900     0.1750     1.1910 hn         1 0Y4       0.433800
     47 H17         10.9840    -0.8200    -1.3780 hn         1 0Y4       0.446800
     48 H18         11.6180     1.9720     0.4860 h4         1 0Y4       0.194000
     49 H19         11.1740    -0.9320     3.6180 h5         1 0Y4       0.069100
@<TRIPOS>BOND
     1     1     2 1   
     2     1    31 1   
     3     1    32 1   
     4     1    33 1   
     5     2     3 ar  
     6     2     4 ar  
     7     3    17 ar  
     8     3    34 1   
     9     4    19 ar  
    10     4    20 1   
    11     5     6 1   
    12     5    20 1   
    13     5    21 2   
    14     6    35 1   
    15     6    36 1   
    16     6    37 1   
    17     7     8 1   
    18     7    10 2   
    19     7    22 1   
    20     8     9 2   
    21     8    38 1   
    22     9    23 1   
    23     9    26 1   
    24    10    24 1   
    25    11    12 1   
    26    11    13 1   
    27    11    24 2   
    28    12    25 2   
    29    12    39 1   
    30    13    14 3   
    31    15    27 1   
    32    15    30 2   
    33    16    29 1   
    34    16    40 1   
    35    16    41 1   
    36    16    42 1   
    37    17    18 ar  
    38    17    43 1   
    39    18    19 ar  
    40    18    22 1   
    41    19    44 1   
    42    20    45 1   
    43    22    46 1   
    44    23    24 1   
    45    23    25 1   
    46    26    27 1   
    47    26    47 1   
    48    27    28 2   
    49    28    29 1   
    50    28    48 1   
    51    29    30 1   
    52    30    49 1   
@<TRIPOS>SUBSTRUCTURE
     1 0Y4         1 TEMP              0 ****  ****    0 ROOT
