@<TRIPOS>MOLECULE
0Y5
   59    62     1     0     0
SMALL
bcc


@<TRIPOS>ATOM
      1 C26          0.0000     0.0000     0.0000 ca         1 0Y5      -0.101000
      2 C19         -2.9200    -2.2770     5.3690 ca         1 0Y5      -0.034000
      3 C27          1.3830     0.0000     0.0000 ca         1 0Y5      -0.083000
      4 C18         -2.8290    -3.3950     4.5690 ca         1 0Y5      -0.150000
      5 C25         -0.6920    -0.0010     1.1950 ca         1 0Y5      -0.106000
      6 C22         -1.3010    -2.2550     3.1100 ca         1 0Y5      -0.244000
      7 C29          1.3890    -0.0010     2.3950 ca         1 0Y5      -0.062000
      8 C20         -2.2010    -1.1250     5.0410 ca         1 0Y5      -0.121600
      9 C17         -2.0220    -3.3850     3.4430 ca         1 0Y5      -0.087300
     10 C28          2.0760     0.0000     1.1960 ca         1 0Y5      -0.205300
     11 C24          0.0010    -0.0070     2.3970 ca         1 0Y5       0.131100
     12 C21         -1.3850    -1.1190     3.9000 ca         1 0Y5       0.152100
     13 C3          -0.0620   -10.1260     3.0820 cc         1 0Y5      -0.088400
     14 C2          -0.0710   -11.3250     2.4620 cd         1 0Y5      -0.296400
     15 C8           0.1880   -11.3830     1.0710 c          1 0Y5       0.623700
     16 C5           0.4420    -9.0610     1.0400 c          1 0Y5       0.584500
     17 C12          1.5650    -5.6600     3.5300 c3         1 0Y5      -0.013400
     18 C11          1.5810    -7.0440     2.8760 c3         1 0Y5      -0.064400
     19 C13          0.4680    -4.8100     2.8850 c3         1 0Y5       0.128800
     20 C15         -0.8560    -6.7810     2.4030 c3         1 0Y5       0.116800
     21 C10          0.2020    -7.6900     3.0330 c3         1 0Y5       0.015700
     22 C1          -0.3550   -12.5840     3.2400 c3         1 0Y5       0.092100
     23 C30          3.5830     0.0000     1.1920 c3         1 0Y5       0.639200
     24 N7           0.4390   -10.2440     0.3960 ns         1 0Y5      -0.128500
     25 N4           0.1910    -8.9910     2.3600 n          1 0Y5       0.065000
     26 N14         -0.8320    -5.4690     3.0630 n3         1 0Y5      -0.524600
     27 O23         -0.6770    -0.0090     3.5740 os         1 0Y5      -0.148200
     28 F31          4.0510     1.1420     1.8520 f          1 0Y5      -0.212300
     29 F32          4.0520    -1.1430     1.8500 f          1 0Y5      -0.212300
     30 F33          4.0460     0.0010    -0.1270 f          1 0Y5      -0.212300
     31 H1          -0.5410     0.0030    -0.9390 ha         1 0Y5       0.102000
     32 H2          -3.5530    -2.2900     6.2480 ha         1 0Y5       0.133000
     33 H3           1.9240     0.0010    -0.9390 ha         1 0Y5       0.112000
     34 H4          -3.3890    -4.2870     4.8230 ha         1 0Y5       0.093000
     35 H5          -1.7750    -0.0030     1.1940 ha         1 0Y5       0.126000
     36 H6          -0.6720    -2.2550     2.2280 ha         1 0Y5       0.114000
     37 H7           1.9330    -0.0040     3.3320 ha         1 0Y5       0.132000
     38 H8          -0.3590   -10.0510     4.1220 h4         1 0Y5       0.139000
     39 H9           1.3650    -5.7640     4.5900 hc         1 0Y5       0.021700
     40 H10          2.5260    -5.1800     3.3830 hc         1 0Y5       0.021700
     41 H11          2.3270    -7.6640     3.3590 hc         1 0Y5       0.034200
     42 H12          1.8150    -6.9430     1.8230 hc         1 0Y5       0.034200
     43 H13          0.4440    -3.8350     3.3570 h1         1 0Y5       0.030200
     44 H14          0.6730    -4.6990     1.8270 h1         1 0Y5       0.030200
     45 H15         -1.8350    -7.2290     2.5280 h1         1 0Y5       0.030200
     46 H16         -0.6420    -6.6580     1.3480 h1         1 0Y5       0.030200
     47 H17         -0.0160    -7.8200     4.0860 h1         1 0Y5       0.052700
     48 H18          0.2240   -12.5820     4.1550 hc         1 0Y5       0.011033
     49 H19         -0.0830   -13.4470     2.6430 hc         1 0Y5       0.011033
     50 H20         -1.4100   -12.6310     3.4800 hc         1 0Y5       0.011033
     51 H21         -1.7300    -4.3250     1.5550 h1         1 0Y5       0.005200
     52 H22         -2.8580    -5.1650     2.6270 h1         1 0Y5       0.005200
     53 H23          0.6240   -10.2770    -0.5870 hn         1 0Y5       0.203500
     54 C34         -2.2990     0.0770     5.8890 c          1 0Y5       0.972200
     55 O9           0.1850   -12.4540     0.4900 o          1 0Y5      -0.674500
     56 O35         -3.0840     0.0670     6.9840 o          1 0Y5      -0.875300
     57 O36         -1.6710     1.0770     5.6000 o          1 0Y5      -0.875300
     58 C16         -1.9250    -4.6160     2.5800 c3         1 0Y5       0.219100
     59 O6           0.6650    -8.0410     0.4170 o          1 0Y5      -0.703500
@<TRIPOS>BOND
     1     1     3 ar  
     2     1     5 ar  
     3     1    31 1   
     4     2     4 ar  
     5     2     8 ar  
     6     2    32 1   
     7     3    10 ar  
     8     3    33 1   
     9     4     9 ar  
    10     4    34 1   
    11     5    11 ar  
    12     5    35 1   
    13     6     9 ar  
    14     6    12 ar  
    15     6    36 1   
    16     7    10 ar  
    17     7    11 ar  
    18     7    37 1   
    19     8    12 ar  
    20     8    54 1   
    21     9    58 1   
    22    10    23 1   
    23    11    27 1   
    24    12    27 1   
    25    13    14 2   
    26    13    25 1   
    27    13    38 1   
    28    14    15 1   
    29    14    22 1   
    30    15    24 1   
    31    15    55 2   
    32    16    24 1   
    33    16    25 1   
    34    16    59 2   
    35    17    18 1   
    36    17    19 1   
    37    17    39 1   
    38    17    40 1   
    39    18    21 1   
    40    18    41 1   
    41    18    42 1   
    42    19    26 1   
    43    19    43 1   
    44    19    44 1   
    45    20    21 1   
    46    20    26 1   
    47    20    45 1   
    48    20    46 1   
    49    21    25 1   
    50    21    47 1   
    51    22    48 1   
    52    22    49 1   
    53    22    50 1   
    54    23    28 1   
    55    23    29 1   
    56    23    30 1   
    57    24    53 1   
    58    26    58 1   
    59    51    58 1   
    60    52    58 1   
    61    54    56 1   
    62    54    57 1   
@<TRIPOS>SUBSTRUCTURE
     1 0Y5         1 TEMP              0 ****  ****    0 ROOT
