@<TRIPOS>MOLECULE
0Y5
   59    62     1     0     0
SMALL
bcc


@<TRIPOS>ATOM
      1 C26          0.0310    -1.0750     0.0490 ca         1 0Y5      -0.129000
      2 C19         -4.3650    -0.2710     3.9620 ca         1 0Y5      -0.116000
      3 C27          1.2980    -0.4990    -0.0480 ca         1 0Y5      -0.116000
      4 C18         -4.5390     1.1000     4.1040 ca         1 0Y5      -0.134000
      5 C25         -0.6760    -1.0440     1.2490 ca         1 0Y5      -0.119000
      6 C22         -2.1730     1.4400     3.7880 ca         1 0Y5      -0.138000
      7 C29          1.1750     0.1680     2.2850 ca         1 0Y5      -0.113000
      8 C20         -3.0990    -0.8260     3.7240 ca         1 0Y5      -0.086600
      9 C17         -3.4430     1.9680     4.0100 ca         1 0Y5      -0.159300
     10 C28          1.8630     0.1150     1.0720 ca         1 0Y5      -0.171300
     11 C24         -0.0980    -0.4160     2.3610 ca         1 0Y5       0.112100
     12 C21         -2.0090     0.0510     3.6610 ca         1 0Y5       0.079100
     13 C3          -1.8370     4.1120    -0.8410 cc         1 0Y5       0.045600
     14 C2          -0.8890     4.1680    -1.8190 cd         1 0Y5      -0.262400
     15 C8          -0.3710     5.4730    -2.2610 c          1 0Y5       0.718700
     16 C5          -1.8720     6.5240    -0.5990 c          1 0Y5       0.806500
     17 C12         -5.7810     4.5980     1.2620 c3         1 0Y5      -0.076400
     18 C11         -4.7220     4.6070     0.1820 c3         1 0Y5      -0.093400
     19 C13         -5.3300     3.7840     2.4710 c3         1 0Y5       0.155800
     20 C15         -2.9970     4.2470     1.9800 c3         1 0Y5       0.154800
     21 C10         -3.4090     5.1390     0.7750 c3         1 0Y5       0.097700
     22 C1          -0.3300     2.9630    -2.4620 c3         1 0Y5      -0.030900
     23 C30          3.2550     0.7180     0.9730 c3         1 0Y5       0.688200
     24 N7          -0.8950     6.6010    -1.6040 ns         1 0Y5      -0.587500
     25 N4          -2.3430     5.2410    -0.2170 n          1 0Y5      -0.364000
     26 N14         -4.0380     4.2070     2.9970 n3         1 0Y5      -0.723600
     27 O23         -0.6930    -0.4300     3.6190 os         1 0Y5      -0.247200
     28 F31          3.5780     1.2250    -0.2650 f          1 0Y5      -0.246967
     29 F32          3.4960     1.7700     1.8260 f          1 0Y5      -0.246967
     30 F33          4.2820    -0.1580     1.2400 f          1 0Y5      -0.246967
     31 H1          -0.4090    -1.5770    -0.8260 ha         1 0Y5       0.138000
     32 H2          -5.2270    -0.9520     4.0380 ha         1 0Y5       0.143000
     33 H3           1.8550    -0.5270    -0.9960 ha         1 0Y5       0.135000
     34 H4          -5.5410     1.5120     4.2960 ha         1 0Y5       0.114000
     35 H5          -1.6680    -1.5380     1.3550 ha         1 0Y5       0.231000
     36 H6          -1.2940     2.0980     3.7270 ha         1 0Y5       0.126000
     37 H7           1.6210     0.6440     3.1710 ha         1 0Y5       0.154000
     38 H8          -2.2530     3.1460    -0.4900 h4         1 0Y5       0.177000
     39 H9          -6.0120     5.6510     1.5740 hc         1 0Y5       0.048200
     40 H10         -6.7240     4.1460     0.8610 hc         1 0Y5       0.048200
     41 H11         -5.0530     5.2550    -0.6700 hc         1 0Y5       0.048200
     42 H12         -4.5730     3.5680    -0.2130 hc         1 0Y5       0.048200
     43 H13         -5.3230     2.6900     2.1850 h1         1 0Y5       0.043200
     44 H14         -6.0840     3.9130     3.2980 h1         1 0Y5       0.043200
     45 H15         -2.0760     4.6850     2.4580 h1         1 0Y5       0.046200
     46 H16         -2.7360     3.2120     1.6110 h1         1 0Y5       0.046200
     47 H17         -3.5960     6.1890     1.1640 h1         1 0Y5       0.111700
     48 H18         -0.9350     2.0560    -2.2170 hc         1 0Y5       0.052367
     49 H19         -0.3070     3.0980    -3.5730 hc         1 0Y5       0.052367
     50 H20          0.7210     2.7970    -2.1150 hc         1 0Y5       0.052367
     51 H21         -2.6760     3.9050     4.5510 h1         1 0Y5       0.053700
     52 H22         -4.4300     3.6250     4.9560 h1         1 0Y5       0.053700
     53 H23         -0.5700     7.5110    -1.8470 hn         1 0Y5       0.346500
     54 C34         -3.0120    -2.3390     3.5340 c          1 0Y5       0.920200
     55 O9           0.4700     5.6520    -3.1580 o          1 0Y5      -0.623500
     56 O35         -3.0490    -3.0650     4.5580 o          1 0Y5      -0.811300
     57 O36         -2.9620    -2.7600     2.3420 o          1 0Y5      -0.811300
     58 C16         -3.6350     3.4470     4.1750 c3         1 0Y5       0.220100
     59 O6          -2.3030     7.5720    -0.0700 o          1 0Y5      -0.652500
@<TRIPOS>BOND
     1     1     3 ar  
     2     1     5 ar  
     3     1    31 1   
     4     2     4 ar  
     5     2     8 ar  
     6     2    32 1   
     7     3    10 ar  
     8     3    33 1   
     9     4     9 ar  
    10     4    34 1   
    11     5    11 ar  
    12     5    35 1   
    13     6     9 ar  
    14     6    12 ar  
    15     6    36 1   
    16     7    10 ar  
    17     7    11 ar  
    18     7    37 1   
    19     8    12 ar  
    20     8    54 1   
    21     9    58 1   
    22    10    23 1   
    23    11    27 1   
    24    12    27 1   
    25    13    14 2   
    26    13    25 1   
    27    13    38 1   
    28    14    15 1   
    29    14    22 1   
    30    15    24 1   
    31    15    55 2   
    32    16    24 1   
    33    16    25 1   
    34    16    59 2   
    35    17    18 1   
    36    17    19 1   
    37    17    39 1   
    38    17    40 1   
    39    18    21 1   
    40    18    41 1   
    41    18    42 1   
    42    19    26 1   
    43    19    43 1   
    44    19    44 1   
    45    20    21 1   
    46    20    26 1   
    47    20    45 1   
    48    20    46 1   
    49    21    25 1   
    50    21    47 1   
    51    22    48 1   
    52    22    49 1   
    53    22    50 1   
    54    23    28 1   
    55    23    29 1   
    56    23    30 1   
    57    24    53 1   
    58    26    58 1   
    59    51    58 1   
    60    52    58 1   
    61    54    56 1   
    62    54    57 1   
@<TRIPOS>SUBSTRUCTURE
     1 0Y5         1 TEMP              0 ****  ****    0 ROOT
