@<TRIPOS>MOLECULE
molecule
   54    56     1     0     0
SMALL
bcc


@<TRIPOS>ATOM
      1 Cl1          0.0000     0.0000     0.0000 cl         1 0Y7      -0.133400
      2 C1           1.7360     0.0000     0.0000 ca         1 0Y7       0.025400
      3 C2           2.4290     0.0000     1.1980 ca         1 0Y7      -0.129000
      4 C3           3.8110     0.0000     1.1970 ca         1 0Y7      -0.103000
      5 C4           2.4280    -0.0060    -1.1980 ca         1 0Y7      -0.129000
      6 C5           3.8110    -0.0110    -1.1980 ca         1 0Y7      -0.103000
      7 C6           4.5020     0.0010    -0.0010 ca         1 0Y7      -0.089300
      8 C7           6.0090    -0.0060    -0.0010 c3         1 0Y7       0.179000
      9 N1           6.4950     1.2180     0.6240 n          1 0Y7      -0.488800
     10 C8           5.7990     2.4700     0.3170 c3         1 0Y7       0.120700
     11 C9           6.6020     3.2580    -0.7200 c3         1 0Y7       0.120400
     12 O4           6.6340     2.5310    -1.9510 oh         1 0Y7      -0.622800
     13 C11          7.5340     1.2680     1.4590 c          1 0Y7       0.695500
     14 O1           7.8740     2.3520     1.8870 o          1 0Y7      -0.579500
     15 C12          8.3050     0.0570     1.8970 c3         1 0Y7      -0.113700
     16 C13          7.8800    -0.3290     3.3160 c3         1 0Y7      -0.180400
     17 C14          8.2740     0.7640     4.2750 c          1 0Y7       0.876600
     18 O2           8.0000     0.6420     5.5830 o          1 0Y7      -0.833800
     19 O3           8.8380     1.7520     3.8660 o          1 0Y7      -0.833800
     20 C15          8.0260    -1.1100     0.9480 c3         1 0Y7      -0.082400
     21 C16          6.5090    -1.2320     0.7620 c3         1 0Y7      -0.040400
     22 C17          6.1950    -2.4790    -0.0240 ca         1 0Y7      -0.053300
     23 C18          6.7180    -2.6470    -1.2920 ca         1 0Y7      -0.124000
     24 C19          6.4300    -3.7910    -2.0140 ca         1 0Y7      -0.125000
     25 C20          5.6200    -4.7670    -1.4670 ca         1 0Y7      -0.135000
     26 C21          5.0960    -4.6000    -0.1970 ca         1 0Y7       0.029400
     27 Cl2          4.0780    -5.8260     0.4910 cl         1 0Y7      -0.124400
     28 C22          5.3880    -3.4570     0.5270 ca         1 0Y7      -0.110000
     29 C10          5.6590     3.3020     1.5930 c3         1 0Y7      -0.087400
     30 C23          5.3910     2.3750     2.7800 c3         1 0Y7      -0.092100
     31 H1           1.8880    -0.0000     2.1360 ha         1 0Y7       0.138500
     32 H2           4.3530     0.0050     2.1350 ha         1 0Y7       0.151500
     33 H3           1.8860    -0.0150    -2.1360 ha         1 0Y7       0.138500
     34 H4           4.3520    -0.0130    -2.1360 ha         1 0Y7       0.151500
     35 H5           6.3700    -0.0500    -1.0210 h1         1 0Y7       0.057700
     36 H6           4.8160     2.2490    -0.0800 h1         1 0Y7       0.057700
     37 H7           6.1350     4.2220    -0.8820 h1         1 0Y7       0.033700
     38 H8           7.6140     3.4020    -0.3600 h1         1 0Y7       0.033700
     39 H9           6.9910     3.0780    -2.6300 ho         1 0Y7       0.389000
     40 H10          9.3640     0.2840     1.8840 hc         1 0Y7       0.096700
     41 H11          6.8060    -0.4660     3.3470 hc         1 0Y7       0.033200
     42 H12          8.3700    -1.2530     3.6010 hc         1 0Y7       0.033200
     43 H14          8.4960    -0.9190    -0.0100 hc         1 0Y7       0.042200
     44 H15          8.4150    -2.0270     1.3750 hc         1 0Y7       0.042200
     45 H16          6.0280    -1.2760     1.7310 hc         1 0Y7       0.082700
     46 H17          7.3530    -1.8820    -1.7210 ha         1 0Y7       0.140000
     47 H18          6.8410    -3.9220    -3.0080 ha         1 0Y7       0.128000
     48 H19          5.3940    -5.6640    -2.0320 ha         1 0Y7       0.133000
     49 H20          4.9780    -3.3260     1.5210 ha         1 0Y7       0.151000
     50 H21          4.8340     3.9950     1.4830 hc         1 0Y7       0.052700
     51 H22          6.5740     3.8550     1.7660 hc         1 0Y7       0.052700
     52 H23          5.7080     1.3690     2.5310 hc         1 0Y7       0.043367
     53 H24          5.9440     2.7250     3.6430 hc         1 0Y7       0.043367
     54 H25          4.3320     2.3750     3.0060 hc         1 0Y7       0.043367
@<TRIPOS>BOND
     1    11    12 1
     2    11    10 1
     3    29    10 1
     4    29    30 1
     5    10     9 1
     6    14    13 2
     7    13     9 1
     8    13    15 1
     9     9     8 1
    10    15    20 1
    11    15    16 1
    12     8     7 1
    13     8    21 1
    14     6     7 ar
    15     6     5 ar
    16     7     4 ar
    17     5     2 ar
    18    20    21 1
    19    16    17 1
    20    19    17 1
    21     4     3 ar
    22    21    22 1
    23     2     3 ar
    24     2     1 1
    25    17    18 1
    26    23    22 ar
    27    23    24 ar
    28    22    28 ar
    29    24    25 ar
    30    28    26 ar
    31    25    26 ar
    32    26    27 1
    33     3    31 1
    34     4    32 1
    35     5    33 1
    36     6    34 1
    37     8    35 1
    38    10    36 1
    39    11    37 1
    40    11    38 1
    41    12    39 1
    42    15    40 1
    43    16    41 1
    44    16    42 1
    45    20    43 1
    46    20    44 1
    47    21    45 1
    48    23    46 1
    49    24    47 1
    50    25    48 1
    51    28    49 1
    52    29    50 1
    53    29    51 1
    54    30    52 1
    55    30    53 1
    56    30    54 1
@<TRIPOS>SUBSTRUCTURE
     1 0Y7         1 TEMP              0 ****  ****    0 ROOT
