@<TRIPOS>MOLECULE
0Y7
   54    56     1     0     0
SMALL
bcc


@<TRIPOS>ATOM
      1 Cl1          0.0000     0.0000     0.0000 cl         1 0Y7      -0.055400
      2 C1           1.7360     0.0000     0.0000 ca         1 0Y7      -0.032600
      3 C2           2.4290     0.0000     1.1980 ca         1 0Y7      -0.106000
      4 C3           3.8110     0.0000     1.1970 ca         1 0Y7      -0.080000
      5 C4           2.4280    -0.0060    -1.1980 ca         1 0Y7      -0.106000
      6 C5           3.8110    -0.0110    -1.1980 ca         1 0Y7      -0.080000
      7 C6           4.5020     0.0010    -0.0010 ca         1 0Y7      -0.095300
      8 C7           6.0090    -0.0060    -0.0010 c3         1 0Y7       0.099000
      9 N1           6.4950     1.2180     0.6240 n          1 0Y7      -0.154800
     10 C8           5.7990     2.4700     0.3170 c3         1 0Y7       0.018700
     11 C9           6.6020     3.2580    -0.7200 c3         1 0Y7       0.195400
     12 O4           6.6340     2.5310    -1.9510 oh         1 0Y7      -0.605800
     13 C11          7.5340     1.2680     1.4590 c          1 0Y7       0.614500
     14 O1           7.8740     2.3520     1.8870 o          1 0Y7      -0.605500
     15 C12          8.3050     0.0570     1.8970 c3         1 0Y7      -0.092700
     16 C13          7.8800    -0.3290     3.3160 c3         1 0Y7      -0.133400
     17 C14          8.2740     0.7640     4.2750 c          1 0Y7       0.958600
     18 O2           8.0000     0.6420     5.5830 o          1 0Y7      -0.880800
     19 O3           8.8380     1.7520     3.8660 o          1 0Y7      -0.880800
     20 C15          8.0260    -1.1100     0.9480 c3         1 0Y7      -0.033400
     21 C16          6.5090    -1.2320     0.7620 c3         1 0Y7      -0.022400
     22 C17          6.1950    -2.4790    -0.0240 ca         1 0Y7      -0.052300
     23 C18          6.7180    -2.6470    -1.2920 ca         1 0Y7      -0.102000
     24 C19          6.4300    -3.7910    -2.0140 ca         1 0Y7      -0.096000
     25 C20          5.6200    -4.7670    -1.4670 ca         1 0Y7      -0.115000
     26 C21          5.0960    -4.6000    -0.1970 ca         1 0Y7      -0.028600
     27 Cl2          4.0780    -5.8260     0.4910 cl         1 0Y7      -0.046400
     28 C22          5.3880    -3.4570     0.5270 ca         1 0Y7      -0.089000
     29 C10          5.6590     3.3020     1.5930 c3         1 0Y7      -0.047400
     30 C23          5.3910     2.3750     2.7800 c3         1 0Y7      -0.038100
     31 H1           1.8880    -0.0000     2.1360 ha         1 0Y7       0.111000
     32 H2           4.3530     0.0050     2.1350 ha         1 0Y7       0.126500
     33 H3           1.8860    -0.0150    -2.1360 ha         1 0Y7       0.111000
     34 H4           4.3520    -0.0130    -2.1360 ha         1 0Y7       0.126500
     35 H5           6.3700    -0.0500    -1.0210 h1         1 0Y7       0.035700
     36 H6           4.8160     2.2490    -0.0800 h1         1 0Y7       0.036700
     37 H7           6.1350     4.2220    -0.8820 h1         1 0Y7       0.002700
     38 H8           7.6140     3.4020    -0.3600 h1         1 0Y7       0.002700
     39 H9           6.9910     3.0780    -2.6300 ho         1 0Y7       0.379000
     40 H10          9.3640     0.2840     1.8840 hc         1 0Y7       0.067700
     41 H11          6.8060    -0.4660     3.3470 hc         1 0Y7       0.010200
     42 H12          8.3700    -1.2530     3.6010 hc         1 0Y7       0.010200
     43 H14          8.4960    -0.9190    -0.0100 hc         1 0Y7       0.017200
     44 H15          8.4150    -2.0270     1.3750 hc         1 0Y7       0.017200
     45 H16          6.0280    -1.2760     1.7310 hc         1 0Y7       0.064700
     46 H17          7.3530    -1.8820    -1.7210 ha         1 0Y7       0.116000
     47 H18          6.8410    -3.9220    -3.0080 ha         1 0Y7       0.099000
     48 H19          5.3940    -5.6640    -2.0320 ha         1 0Y7       0.107000
     49 H20          4.9780    -3.3260     1.5210 ha         1 0Y7       0.124000
     50 H21          4.8340     3.9950     1.4830 hc         1 0Y7       0.032200
     51 H22          6.5740     3.8550     1.7660 hc         1 0Y7       0.032200
     52 H23          5.7080     1.3690     2.5310 hc         1 0Y7       0.020700
     53 H24          5.9440     2.7250     3.6430 hc         1 0Y7       0.020700
     54 H25          4.3320     2.3750     3.0060 hc         1 0Y7       0.020700
@<TRIPOS>BOND
     1     1     2 1   
     2     2     3 ar  
     3     2     5 ar  
     4     3     4 ar  
     5     3    31 1   
     6     4     7 ar  
     7     4    32 1   
     8     5     6 ar  
     9     5    33 1   
    10     6     7 ar  
    11     6    34 1   
    12     7     8 1   
    13     8     9 1   
    14     8    21 1   
    15     8    35 1   
    16     9    10 1   
    17     9    13 1   
    18    10    11 1   
    19    10    29 1   
    20    10    36 1   
    21    11    12 1   
    22    11    37 1   
    23    11    38 1   
    24    12    39 1   
    25    13    14 2   
    26    13    15 1   
    27    15    16 1   
    28    15    20 1   
    29    15    40 1   
    30    16    17 1   
    31    16    41 1   
    32    16    42 1   
    33    17    18 1   
    34    17    19 1   
    35    20    21 1   
    36    20    43 1   
    37    20    44 1   
    38    21    22 1   
    39    21    45 1   
    40    22    23 ar  
    41    22    28 ar  
    42    23    24 ar  
    43    23    46 1   
    44    24    25 ar  
    45    24    47 1   
    46    25    26 ar  
    47    25    48 1   
    48    26    27 1   
    49    26    28 ar  
    50    28    49 1   
    51    29    30 1   
    52    29    50 1   
    53    29    51 1   
    54    30    52 1   
    55    30    53 1   
    56    30    54 1   
@<TRIPOS>SUBSTRUCTURE
     1 0Y7         1 TEMP              0 ****  ****    0 ROOT
