@<TRIPOS>MOLECULE
0Y7
   54    56     1     0     0
SMALL
bcc


@<TRIPOS>ATOM
      1 Cl1          0.0320     0.1190     1.4380 cl         1 0Y7      -0.130400
      2 C1           1.6970     0.0200     1.0730 ca         1 0Y7       0.015400
      3 C2           2.6210    -0.2120     2.0930 ca         1 0Y7      -0.136000
      4 C3           3.9820    -0.2870     1.7910 ca         1 0Y7      -0.107000
      5 C4           2.1190     0.1690    -0.2510 ca         1 0Y7      -0.136000
      6 C5           3.4790     0.0920    -0.5440 ca         1 0Y7      -0.107000
      7 C6           4.4190    -0.1330     0.4700 ca         1 0Y7      -0.101300
      8 C7           5.8880    -0.2210     0.0950 c3         1 0Y7       0.177000
      9 N1           6.6250     0.9920     0.4280 n          1 0Y7      -0.475800
     10 C8           6.1900     2.2020    -0.2580 c3         1 0Y7       0.080700
     11 C9           7.1710     2.6460    -1.3680 c3         1 0Y7       0.105400
     12 O4           7.2500     1.7000    -2.4180 oh         1 0Y7      -0.613800
     13 C11          7.7660     1.0060     1.2220 c          1 0Y7       0.701500
     14 O1           8.4720     2.0370     1.2950 o          1 0Y7      -0.683500
     15 C12          8.1550    -0.2540     1.9790 c3         1 0Y7      -0.094700
     16 C13          7.4400    -0.2810     3.3210 c3         1 0Y7      -0.197400
     17 C14          7.0400    -1.6950     3.7780 c          1 0Y7       0.908600
     18 O2           5.8030    -1.9810     3.7480 o          1 0Y7      -0.841800
     19 O3           7.9380    -2.4930     4.1590 o          1 0Y7      -0.841800
     20 C15          7.9180    -1.4580     1.0900 c3         1 0Y7      -0.072400
     21 C16          6.4680    -1.5500     0.6470 c3         1 0Y7      -0.060400
     22 C17          6.3120    -2.6380    -0.3720 ca         1 0Y7      -0.046300
     23 C18          6.9070    -2.5440    -1.6370 ca         1 0Y7      -0.134000
     24 C19          6.7600    -3.5720    -2.5660 ca         1 0Y7      -0.132000
     25 C20          6.0230    -4.7100    -2.2480 ca         1 0Y7      -0.140000
     26 C21          5.4370    -4.8080    -0.9820 ca         1 0Y7       0.016400
     27 Cl2          4.5370    -6.2000    -0.5860 cl         1 0Y7      -0.114400
     28 C22          5.5780    -3.7840    -0.0420 ca         1 0Y7      -0.100000
     29 C10          5.9530     3.4090     0.6650 c3         1 0Y7      -0.091400
     30 C23          4.7970     3.2030     1.6050 c3         1 0Y7      -0.092100
     31 H1           2.2890    -0.3470     3.1330 ha         1 0Y7       0.142500
     32 H2           4.7030    -0.5140     2.6100 ha         1 0Y7       0.173500
     33 H3           1.3900     0.3410    -1.0550 ha         1 0Y7       0.142500
     34 H4           3.8100     0.2040    -1.5880 ha         1 0Y7       0.173500
     35 H5           5.9310    -0.2820    -1.0430 h1         1 0Y7       0.035700
     36 H6           5.2040     1.9650    -0.7640 h1         1 0Y7       0.061700
     37 H7           6.7760     3.5740    -1.8610 h1         1 0Y7       0.056700
     38 H8           8.1880     2.8460    -0.9360 h1         1 0Y7       0.056700
     39 H9           7.6430     0.8980    -2.0530 ho         1 0Y7       0.401000
     40 H10          9.2640    -0.1880     2.1750 hc         1 0Y7       0.074700
     41 H11          8.1170     0.1580     4.0980 hc         1 0Y7       0.038200
     42 H12          6.5150     0.3500     3.2810 hc         1 0Y7       0.038200
     43 H14          8.5940    -1.3980     0.1960 hc         1 0Y7       0.061700
     44 H15          8.1810    -2.3880     1.6680 hc         1 0Y7       0.061700
     45 H16          5.8800    -1.8370     1.5790 hc         1 0Y7       0.144700
     46 H17          7.4980    -1.6530    -1.8980 ha         1 0Y7       0.129000
     47 H18          7.2310    -3.4870    -3.5560 ha         1 0Y7       0.125000
     48 H19          5.9070    -5.5210    -2.9810 ha         1 0Y7       0.133000
     49 H20          5.1260    -3.8750     0.9620 ha         1 0Y7       0.178000
     50 H21          6.8870     3.6300     1.2460 hc         1 0Y7       0.052700
     51 H22          5.7440     4.2970     0.0110 hc         1 0Y7       0.052700
     52 H23          3.8430     3.0700     1.0390 hc         1 0Y7       0.035700
     53 H24          4.6880     4.0880     2.2780 hc         1 0Y7       0.035700
     54 H25          4.9530     2.2950     2.2390 hc         1 0Y7       0.035700
@<TRIPOS>BOND
     1     1     2 1   
     2     2     3 ar  
     3     2     5 ar  
     4     3     4 ar  
     5     3    31 1   
     6     4     7 ar  
     7     4    32 1   
     8     5     6 ar  
     9     5    33 1   
    10     6     7 ar  
    11     6    34 1   
    12     7     8 1   
    13     8     9 1   
    14     8    21 1   
    15     8    35 1   
    16     9    10 1   
    17     9    13 1   
    18    10    11 1   
    19    10    29 1   
    20    10    36 1   
    21    11    12 1   
    22    11    37 1   
    23    11    38 1   
    24    12    39 1   
    25    13    14 2   
    26    13    15 1   
    27    15    16 1   
    28    15    20 1   
    29    15    40 1   
    30    16    17 1   
    31    16    41 1   
    32    16    42 1   
    33    17    18 1   
    34    17    19 1   
    35    20    21 1   
    36    20    43 1   
    37    20    44 1   
    38    21    22 1   
    39    21    45 1   
    40    22    23 ar  
    41    22    28 ar  
    42    23    24 ar  
    43    23    46 1   
    44    24    25 ar  
    45    24    47 1   
    46    25    26 ar  
    47    25    48 1   
    48    26    27 1   
    49    26    28 ar  
    50    28    49 1   
    51    29    30 1   
    52    29    50 1   
    53    29    51 1   
    54    30    52 1   
    55    30    53 1   
    56    30    54 1   
@<TRIPOS>SUBSTRUCTURE
     1 0Y7         1 TEMP              0 ****  ****    0 ROOT
