@<TRIPOS>MOLECULE
0YA
   15    15     1     0     0
SMALL
bcc


@<TRIPOS>ATOM
      1 N28          0.1170    -0.0360    -0.2620 nz         1 0YA      -0.792500
      2 S29          1.9500     0.1330     0.2420 s6         1 0YA       1.460900
      3 O30          1.8040     0.4950     1.5600 o          1 0YA      -0.554300
      4 O31          2.4240    -1.1010    -0.1360 o          1 0YA      -0.554300
      5 C32          2.3380     1.3520    -0.7430 cx         1 0YA      -0.590900
      6 C33          2.2760     1.3650    -2.2720 cx         1 0YA      -0.004400
      7 C34          3.6020     1.3540    -1.6230 cx         1 0YA      -0.004400
      8 H19         -0.0830    -0.9890    -0.5640 hn         1 0YA       0.461800
      9 H20          2.1360     2.3640    -0.2930 h1         1 0YA       0.190700
     10 H21          1.9140     0.4510    -2.7830 hc         1 0YA       0.116200
     11 H22          1.9090     2.2910    -2.7570 hc         1 0YA       0.116200
     12 H23          4.2220     2.2720    -1.6090 hc         1 0YA       0.116200
     13 H24          4.2150     0.4290    -1.6370 hc         1 0YA       0.116200
     14 H2          -0.1430     0.5900    -1.0190 hn         1 0YA       0.461800
     15 H283        -0.4890     0.1690     0.5340 hn         1 0YA       0.461800
@<TRIPOS>BOND
     1     1     2 1   
     2     1     8 1   
     3     1    14 1   
     4     1    15 1   
     5     2     3 2   
     6     2     4 2   
     7     2     5 1   
     8     5     6 1   
     9     5     7 1   
    10     5     9 1   
    11     6     7 1   
    12     6    10 1   
    13     6    11 1   
    14     7    12 1   
    15     7    13 1   
@<TRIPOS>SUBSTRUCTURE
     1 0YA         1 TEMP              0 ****  ****    0 ROOT
