@<TRIPOS>MOLECULE
molecule
   15    15     1     0     0
SMALL
bcc


@<TRIPOS>ATOM
      1 N28          0.0000     0.0000     0.0000 nz         1 0YA      -0.804500
      2 S29          1.6560     0.0000     0.0000 s6         1 0YA       1.162900
      3 O30          2.0070     0.0000     1.3770 o          1 0YA      -0.512800
      4 O31          2.0060    -1.0880    -0.8440 o          1 0YA      -0.512800
      5 C32          2.1090     1.5770    -0.7720 cx         1 0YA      -0.332900
      6 C33          2.6560     1.5330    -2.2000 cx         1 0YA      -0.040400
      7 C34          3.5950     1.8370    -1.0310 cx         1 0YA      -0.040400
      8 H19         -0.3340     0.8110     0.4830 hn         1 0YA       0.493800
      9 H20          1.5290     2.4610    -0.5360 h1         1 0YA       0.144700
     10 H21          2.7540     0.5450    -2.6330 hc         1 0YA       0.113450
     11 H22          2.3990     2.3800    -2.8250 hc         1 0YA       0.113450
     12 H23          3.9120     2.8690    -0.9410 hc         1 0YA       0.113450
     13 H24          4.2660     1.0340    -0.7490 hc         1 0YA       0.113450
     14 H2          -0.3340    -0.8230     0.4610 hn         1 0YA       0.493800
     15 H283        -0.3340     0.0120    -0.9440 hn         1 0YA       0.493800
@<TRIPOS>BOND
     1     3     2 2   
     2     1     2 1   
     3     2     4 2   
     4     2     5 1   
     5     5     7 1   
     6     5     6 1   
     7     7     6 1   
     8     1     8 1   
     9     5     9 1   
    10     6    10 1   
    11     6    11 1   
    12     7    12 1   
    13     7    13 1   
    14     1    14 1   
    15    15     1 1   
@<TRIPOS>SUBSTRUCTURE
     1 0YA         1 TEMP              0 ****  ****    0 ROOT
