@<TRIPOS>MOLECULE
0YA
   15    15     1     0     0
SMALL
bcc


@<TRIPOS>ATOM
      1 N28          0.0000     0.0000     0.0000 nz         1 0YA      -0.134500
      2 S29          1.6560     0.0000     0.0000 s6         1 0YA       0.882900
      3 O30          2.0070     0.0000     1.3770 o          1 0YA      -0.491300
      4 O31          2.0060    -1.0880    -0.8440 o          1 0YA      -0.491300
      5 C32          2.1090     1.5770    -0.7720 cx         1 0YA      -0.186900
      6 C33          2.6560     1.5330    -2.2000 cx         1 0YA       0.035600
      7 C34          3.5950     1.8370    -1.0310 cx         1 0YA       0.035600
      8 H19         -0.3340     0.8110     0.4830 hn         1 0YA       0.316467
      9 H20          1.5290     2.4610    -0.5360 h1         1 0YA       0.117700
     10 H21          2.7540     0.5450    -2.6330 hc         1 0YA       0.070950
     11 H22          2.3990     2.3800    -2.8250 hc         1 0YA       0.070950
     12 H23          3.9120     2.8690    -0.9410 hc         1 0YA       0.070950
     13 H24          4.2660     1.0340    -0.7490 hc         1 0YA       0.070950
     14 H2          -0.3340    -0.8230     0.4610 hn         1 0YA       0.316467
     15 H283        -0.3340     0.0120    -0.9440 hn         1 0YA       0.316467
@<TRIPOS>BOND
     1     1     2 1   
     2     1     8 1   
     3     1    14 1   
     4     1    15 1   
     5     2     3 2   
     6     2     4 2   
     7     2     5 1   
     8     5     6 1   
     9     5     7 1   
    10     5     9 1   
    11     6     7 1   
    12     6    10 1   
    13     6    11 1   
    14     7    12 1   
    15     7    13 1   
@<TRIPOS>SUBSTRUCTURE
     1 0YA         1 TEMP              0 ****  ****    0 ROOT
