@<TRIPOS>MOLECULE
0YB
   71    74     1     0     0
SMALL
bcc


@<TRIPOS>ATOM
      1 C31          0.0000     0.0000     0.0000 ca         1 0YB      -0.093000
      2 C24          6.1080    -2.4170     1.8370 ca         1 0YB      -0.036000
      3 C23          5.3680    -3.5720     1.9700 ca         1 0YB      -0.166000
      4 C30          1.3810     0.0000     0.0000 ca         1 0YB      -0.115000
      5 C32         -0.6930     0.0000     1.1970 ca         1 0YB      -0.116000
      6 C27          3.3390    -2.3440     1.5960 ca         1 0YB      -0.245000
      7 C34          1.3770     0.0000     2.4020 ca         1 0YB      -0.114000
      8 C25          5.4650    -1.2030     1.5810 ca         1 0YB      -0.128600
      9 C22          3.9890    -3.5360     1.8500 ca         1 0YB      -0.079300
     10 C29          2.0740     0.0000     1.2030 ca         1 0YB       0.137100
     11 C26          4.0690    -1.1720     1.4540 ca         1 0YB       0.157100
     12 C33         -0.0050     0.0000     2.3970 ca         1 0YB       0.054100
     13 C3           4.2440    -3.4360     7.5740 cc         1 0YB      -0.089400
     14 C2           4.0010    -2.4980     8.5160 cd         1 0YB      -0.289400
     15 C8           2.6890    -1.9850     8.6540 c          1 0YB       0.623700
     16 C5           1.9810    -3.3780     6.9170 c          1 0YB       0.586500
     17 C12          2.8630    -7.1560     4.9210 c3         1 0YB      -0.012400
     18 C11          2.6280    -6.1220     6.0260 c3         1 0YB      -0.066400
     19 C13          2.5330    -6.5300     3.5640 c3         1 0YB       0.134800
     20 C15          3.1390    -4.3260     4.3690 c3         1 0YB       0.100800
     21 C10          3.4880    -4.8860     5.7500 c3         1 0YB       0.018700
     22 C1           5.1120    -2.0050     9.4060 c3         1 0YB       0.104100
     23 C19          3.5880    -6.4630    -1.4540 c3         1 0YB      -0.014767
     24 C20          3.9550    -4.0800    -0.7990 c3         1 0YB      -0.014767
     25 C21          1.7210    -5.1420    -0.4490 c3         1 0YB      -0.014767
     26 C17          3.6650    -5.8290     0.9620 c3         1 0YB      -0.032400
     27 C16          3.1920    -4.8070     1.9970 c3         1 0YB       0.179800
     28 N7           1.7110    -2.4420     7.8460 ns         1 0YB      -0.126500
     29 N4           3.2240    -3.8690     6.7710 n          1 0YB       0.069000
     30 N14          3.3820    -5.3520     3.3480 n3         1 0YB      -0.524600
     31 O37          5.6870     1.0900     1.2200 o          1 0YB      -0.875300
     32 O38          7.5910     0.0020     1.5660 o          1 0YB      -0.875300
     33 O28          3.4330    -0.0010     1.2050 os         1 0YB      -0.152200
     34 Br3         -0.9560     0.0010     4.0310 br         1 0YB      -0.156100
     35 H1          -0.5410     0.0000    -0.9390 ha         1 0YB       0.099000
     36 H2           7.1870    -2.4490     1.9340 ha         1 0YB       0.134000
     37 H3           5.8680    -4.5120     2.1690 ha         1 0YB       0.105000
     38 H4           1.9230    -0.0000    -0.9380 ha         1 0YB       0.122000
     39 H5          -1.7760     0.0000     1.1950 ha         1 0YB       0.108000
     40 H6           2.2600    -2.3240     1.5010 ha         1 0YB       0.117000
     41 H7           1.9160     0.0000     3.3420 ha         1 0YB       0.135000
     42 H8           5.2420    -3.8380     7.4520 h4         1 0YB       0.140000
     43 H9           2.2230    -8.0140     5.0880 hc         1 0YB       0.013700
     44 H10          3.9010    -7.4650     4.9320 hc         1 0YB       0.013700
     45 H11          1.5820    -5.8390     6.0380 hc         1 0YB       0.035200
     46 H12          2.9050    -6.5480     6.9830 hc         1 0YB       0.035200
     47 H13          2.7160    -7.2550     2.7800 h1         1 0YB       0.016200
     48 H14          1.4920    -6.2310     3.5500 h1         1 0YB       0.016200
     49 H15          2.0940    -4.0410     4.3500 h1         1 0YB       0.053700
     50 H16          3.7580    -3.4610     4.1640 h1         1 0YB       0.053700
     51 H17          4.5350    -5.1640     5.7710 h1         1 0YB       0.051700
     52 H18          4.8200    -2.1190    10.4430 hc         1 0YB       0.008700
     53 H19          5.3040    -0.9590     9.1980 hc         1 0YB       0.008700
     54 H20          6.0090    -2.5820     9.2170 hc         1 0YB       0.008700
     55 H21          4.6600    -6.6230    -1.4520 hc         1 0YB       0.009811
     56 H22          3.0850    -7.3860    -1.1930 hc         1 0YB       0.009811
     57 H23          3.2720    -6.1450    -2.4400 hc         1 0YB       0.009811
     58 H24          4.0250    -3.9950    -1.8770 hc         1 0YB       0.009811
     59 H25          4.9510    -4.1070    -0.3740 hc         1 0YB       0.009811
     60 H26          3.4170    -3.2260    -0.4040 hc         1 0YB       0.009811
     61 H27          1.4080    -4.8620    -1.4480 hc         1 0YB       0.009811
     62 H28          1.4370    -4.3640     0.2490 hc         1 0YB       0.009811
     63 H29          1.2420    -6.0720    -0.1680 hc         1 0YB       0.009811
     64 H30          3.2270    -6.7950     1.1820 hc         1 0YB       0.026200
     65 H31          4.7450    -5.9060     0.9990 hc         1 0YB       0.026200
     66 H32          2.1410    -4.5940     1.8390 h1         1 0YB       0.024700
     67 H33          0.7800    -2.0860     7.9400 hn         1 0YB       0.202500
     68 C18          3.2330    -5.3780    -0.4350 c3         1 0YB      -0.061000
     69 O9           2.4450    -1.1390     9.4960 o          1 0YB      -0.672500
     70 C36          6.2490     0.0370     1.4430 c          1 0YB       0.972200
     71 O6           1.0870    -3.7840     6.1990 o          1 0YB      -0.711500
@<TRIPOS>BOND
     1     1     4 ar  
     2     1     5 ar  
     3     1    35 1   
     4     2     3 ar  
     5     2     8 ar  
     6     2    36 1   
     7     3     9 ar  
     8     3    37 1   
     9     4    10 ar  
    10     4    38 1   
    11     5    12 ar  
    12     5    39 1   
    13     6     9 ar  
    14     6    11 ar  
    15     6    40 1   
    16     7    10 ar  
    17     7    12 ar  
    18     7    41 1   
    19     8    11 ar  
    20     8    70 1   
    21     9    27 1   
    22    10    33 1   
    23    11    33 1   
    24    12    34 1   
    25    13    14 2   
    26    13    29 1   
    27    13    42 1   
    28    14    15 1   
    29    14    22 1   
    30    15    28 1   
    31    15    69 2   
    32    16    28 1   
    33    16    29 1   
    34    16    71 2   
    35    17    18 1   
    36    17    19 1   
    37    17    43 1   
    38    17    44 1   
    39    18    21 1   
    40    18    45 1   
    41    18    46 1   
    42    19    30 1   
    43    19    47 1   
    44    19    48 1   
    45    20    21 1   
    46    20    30 1   
    47    20    49 1   
    48    20    50 1   
    49    21    29 1   
    50    21    51 1   
    51    22    52 1   
    52    22    53 1   
    53    22    54 1   
    54    23    55 1   
    55    23    56 1   
    56    23    57 1   
    57    23    68 1   
    58    24    58 1   
    59    24    59 1   
    60    24    60 1   
    61    24    68 1   
    62    25    61 1   
    63    25    62 1   
    64    25    63 1   
    65    25    68 1   
    66    26    27 1   
    67    26    64 1   
    68    26    65 1   
    69    26    68 1   
    70    27    30 1   
    71    27    66 1   
    72    28    67 1   
    73    31    70 1   
    74    32    70 1   
@<TRIPOS>SUBSTRUCTURE
     1 0YB         1 TEMP              0 ****  ****    0 ROOT
