@<TRIPOS>MOLECULE
0YB
   71    74     1     0     0
SMALL
bcc


@<TRIPOS>ATOM
      1 C31          0.0770     0.7720    -0.6450 ca         1 0YB      -0.125000
      2 C24          5.8910    -0.2780    -1.0450 ca         1 0YB      -0.115000
      3 C23          6.0260    -1.6590    -1.1030 ca         1 0YB      -0.141000
      4 C30          1.4260     0.6780    -0.3140 ca         1 0YB      -0.136000
      5 C32         -0.9070     0.2770     0.2120 ca         1 0YB      -0.145000
      6 C27          4.1270    -1.9140     0.3560 ca         1 0YB      -0.142000
      7 C34          0.8060    -0.4290     1.7760 ca         1 0YB      -0.135000
      8 C25          4.8730     0.3270    -0.2940 ca         1 0YB      -0.088600
      9 C22          5.1400    -2.4950    -0.4060 ca         1 0YB      -0.147300
     10 C29          1.7800     0.0660     0.8960 ca         1 0YB       0.116100
     11 C26          4.0140    -0.5150     0.4210 ca         1 0YB       0.081100
     12 C33         -0.5400    -0.3110     1.4250 ca         1 0YB      -0.021900
     13 C3          -0.0370    -4.1890    -1.5530 cc         1 0YB       0.045600
     14 C2          -1.3670    -4.1710    -1.2500 cd         1 0YB      -0.259400
     15 C8          -2.0850    -5.4400    -1.0450 c          1 0YB       0.717700
     16 C5           0.0450    -6.6100    -1.5030 c          1 0YB       0.805500
     17 C12          3.7390    -4.8400    -3.8900 c3         1 0YB      -0.075400
     18 C11          2.2760    -4.7600    -3.5150 c3         1 0YB      -0.093400
     19 C13          4.6210    -4.1460    -2.8550 c3         1 0YB       0.158800
     20 C15          2.9830    -4.5340    -1.1160 c3         1 0YB       0.152800
     21 C10          2.0880    -5.3370    -2.1040 c3         1 0YB       0.096700
     22 C1          -2.1370    -2.9190    -1.1180 c3         1 0YB      -0.037900
     23 C19          6.4030    -5.4630     2.8890 c3         1 0YB      -0.087100
     24 C20          7.5460    -5.7600     0.7160 c3         1 0YB      -0.087100
     25 C21          7.3060    -3.4880     1.6990 c3         1 0YB      -0.087100
     26 C17          5.2680    -4.6960     0.8380 c3         1 0YB      -0.065400
     27 C16          5.3040    -3.9920    -0.5310 c3         1 0YB       0.236800
     28 N7          -1.3200    -6.6130    -1.1790 ns         1 0YB      -0.588500
     29 N4           0.6910    -5.3610    -1.6840 n          1 0YB      -0.363000
     30 N14          4.3850    -4.6210    -1.4960 n3         1 0YB      -0.723600
     31 O37          3.8800     2.3300    -1.1090 o          1 0YB      -0.812300
     32 O38          5.5750     2.5210     0.3410 o          1 0YB      -0.812300
     33 O28          3.0950     0.0030     1.3450 os         1 0YB      -0.248200
     34 Br3         -1.8640    -0.9510     2.5940 br         1 0YB      -0.124100
     35 H1          -0.2160     1.2600    -1.5860 ha         1 0YB       0.134000
     36 H2           6.5910     0.3730    -1.5930 ha         1 0YB       0.143000
     37 H3           6.8340    -2.1050    -1.7020 ha         1 0YB       0.113000
     38 H4           2.2210     1.1150    -0.9580 ha         1 0YB       0.226000
     39 H5          -1.9680     0.3670    -0.0650 ha         1 0YB       0.132000
     40 H6           3.4140    -2.5330     0.9210 ha         1 0YB       0.126000
     41 H7           1.1170    -0.8800     2.7290 ha         1 0YB       0.152000
     42 H8           0.5350    -3.2520    -1.7060 h4         1 0YB       0.179000
     43 H9           4.0430    -5.9140    -3.9910 hc         1 0YB       0.047700
     44 H10          3.9010    -4.3430    -4.8810 hc         1 0YB       0.047700
     45 H11          1.9340    -3.6920    -3.5440 hc         1 0YB       0.048200
     46 H12          1.6630    -5.3360    -4.2550 hc         1 0YB       0.048200
     47 H13          4.4700    -3.0290    -2.9360 h1         1 0YB       0.043200
     48 H14          5.6990    -4.3610    -3.1040 h1         1 0YB       0.043200
     49 H15          2.6220    -3.4640    -1.0790 h1         1 0YB       0.047700
     50 H16          2.8770    -4.9710    -0.0840 h1         1 0YB       0.047700
     51 H17          2.4470    -6.4130    -2.1100 h1         1 0YB       0.110700
     52 H18         -2.9680    -3.0540    -0.3800 hc         1 0YB       0.054367
     53 H19         -1.4860    -2.0750    -0.7740 hc         1 0YB       0.054367
     54 H20         -2.5900    -2.6410    -2.1030 hc         1 0YB       0.054367
     55 H21          7.3740    -5.5770     3.4280 hc         1 0YB       0.034033
     56 H22          5.9320    -6.4690     2.7840 hc         1 0YB       0.034033
     57 H23          5.7320    -4.8140     3.5010 hc         1 0YB       0.034033
     58 H24          7.8810    -5.2710    -0.2290 hc         1 0YB       0.034033
     59 H25          8.4540    -6.0120     1.3160 hc         1 0YB       0.034033
     60 H26          7.0140    -6.7070     0.4590 hc         1 0YB       0.034033
     61 H27          6.6710    -2.8230     2.3320 hc         1 0YB       0.034033
     62 H28          7.4600    -2.9870     0.7120 hc         1 0YB       0.034033
     63 H29          8.2970    -3.6170     2.1960 hc         1 0YB       0.034033
     64 H30          4.5900    -4.1320     1.5300 hc         1 0YB       0.048200
     65 H31          4.8450    -5.7320     0.7240 hc         1 0YB       0.048200
     66 H32          6.3350    -4.1800    -0.9700 h1         1 0YB       0.058700
     67 H33         -1.7490    -7.5020    -1.0390 hn         1 0YB       0.345500
     68 C18          6.6340    -4.8390     1.5140 c3         1 0YB      -0.051000
     69 O9          -3.2920    -5.5540    -0.7690 o          1 0YB      -0.626500
     70 C36          4.7610     1.8490    -0.3390 c          1 0YB       0.921200
     71 O6           0.6550    -7.6970    -1.6230 o          1 0YB      -0.653500
@<TRIPOS>BOND
     1     1     4 ar  
     2     1     5 ar  
     3     1    35 1   
     4     2     3 ar  
     5     2     8 ar  
     6     2    36 1   
     7     3     9 ar  
     8     3    37 1   
     9     4    10 ar  
    10     4    38 1   
    11     5    12 ar  
    12     5    39 1   
    13     6     9 ar  
    14     6    11 ar  
    15     6    40 1   
    16     7    10 ar  
    17     7    12 ar  
    18     7    41 1   
    19     8    11 ar  
    20     8    70 1   
    21     9    27 1   
    22    10    33 1   
    23    11    33 1   
    24    12    34 1   
    25    13    14 2   
    26    13    29 1   
    27    13    42 1   
    28    14    15 1   
    29    14    22 1   
    30    15    28 1   
    31    15    69 2   
    32    16    28 1   
    33    16    29 1   
    34    16    71 2   
    35    17    18 1   
    36    17    19 1   
    37    17    43 1   
    38    17    44 1   
    39    18    21 1   
    40    18    45 1   
    41    18    46 1   
    42    19    30 1   
    43    19    47 1   
    44    19    48 1   
    45    20    21 1   
    46    20    30 1   
    47    20    49 1   
    48    20    50 1   
    49    21    29 1   
    50    21    51 1   
    51    22    52 1   
    52    22    53 1   
    53    22    54 1   
    54    23    55 1   
    55    23    56 1   
    56    23    57 1   
    57    23    68 1   
    58    24    58 1   
    59    24    59 1   
    60    24    60 1   
    61    24    68 1   
    62    25    61 1   
    63    25    62 1   
    64    25    63 1   
    65    25    68 1   
    66    26    27 1   
    67    26    64 1   
    68    26    65 1   
    69    26    68 1   
    70    27    30 1   
    71    27    66 1   
    72    28    67 1   
    73    31    70 1   
    74    32    70 1   
@<TRIPOS>SUBSTRUCTURE
     1 0YB         1 TEMP              0 ****  ****    0 ROOT
