@<TRIPOS>MOLECULE
0YC
   17    17     1     0     0
SMALL
bcc


@<TRIPOS>ATOM
      1 N16          0.0000     0.0000     0.0000 nz         1 0YC       0.074400
      2 C17          1.4680     0.0000     0.0000 c3         1 0YC       0.047100
      3 C18          1.9710     0.0000     1.4210 ca         1 0YC      -0.343600
      4 C22          2.1990     1.1920     2.0820 ca         1 0YC       0.449200
      5 N23          2.6390     1.2000     3.3260 nb         1 0YC      -0.547000
      6 C24          2.8770     0.0820     3.9840 ca         1 0YC       0.469200
      7 C25          2.6720    -1.1470     3.3870 ca         1 0YC      -0.196300
      8 C26          2.2050    -1.1950     2.0820 ca         1 0YC      -0.033000
      9 H13         -0.3340     0.6740     0.6600 hn         1 0YC       0.224133
     10 H14          1.8290     0.8840    -0.5110 hx         1 0YC       0.083200
     11 H15          1.8290    -0.8840    -0.5110 hx         1 0YC       0.083200
     12 H22          2.0140     2.1310     1.5730 h4         1 0YC      -0.015900
     13 H23          3.2390     0.1280     5.0030 h4         1 0YC       0.004100
     14 H24          2.8680    -2.0620     3.9330 ha         1 0YC       0.138000
     15 H25          2.0360    -2.1440     1.5880 ha         1 0YC       0.115000
     16 H2          -0.3340     0.2350    -0.9140 hn         1 0YC       0.224133
     17 H163        -0.3340    -0.9090     0.2540 hn         1 0YC       0.224133
@<TRIPOS>BOND
     1     1     2 1   
     2     1     9 1   
     3     1    16 1   
     4     1    17 1   
     5     2     3 1   
     6     2    10 1   
     7     2    11 1   
     8     3     4 ar  
     9     3     8 ar  
    10     4     5 ar  
    11     4    12 1   
    12     5     6 ar  
    13     6     7 ar  
    14     6    13 1   
    15     7     8 ar  
    16     7    14 1   
    17     8    15 1   
@<TRIPOS>SUBSTRUCTURE
     1 0YC         1 TEMP              0 ****  ****    0 ROOT
