@<TRIPOS>MOLECULE
molecule
   17    17     1     0     0
SMALL
bcc


@<TRIPOS>ATOM
      1 N16          0.0000     0.0000     0.0000 nz         1 0YC      -0.811600
      2 C17          1.4680     0.0000     0.0000 c3         1 0YC       0.164100
      3 C18          1.9710     0.0000     1.4210 ca         1 0YC      -0.331600
      4 C22          2.1990     1.1920     2.0820 ca         1 0YC       0.459200
      5 N23          2.6390     1.2000     3.3260 nb         1 0YC      -0.660000
      6 C24          2.8770     0.0820     3.9840 ca         1 0YC       0.479200
      7 C25          2.6720    -1.1470     3.3870 ca         1 0YC      -0.237300
      8 C26          2.2050    -1.1950     2.0820 ca         1 0YC      -0.063000
      9 H13         -0.3340     0.6740     0.6600 hn         1 0YC       0.456133
     10 H14          1.8290     0.8840    -0.5110 hx         1 0YC       0.114200
     11 H15          1.8290    -0.8840    -0.5110 hx         1 0YC       0.114200
     12 H22          2.0140     2.1310     1.5730 h4         1 0YC       0.030100
     13 H23          3.2390     0.1280     5.0030 h4         1 0YC       0.057100
     14 H24          2.8680    -2.0620     3.9330 ha         1 0YC       0.171000
     15 H25          2.0360    -2.1440     1.5880 ha         1 0YC       0.146000
     16 H2          -0.3340     0.2350    -0.9140 hn         1 0YC       0.456133
     17 H163        -0.3340    -0.9090     0.2540 hn         1 0YC       0.456133
@<TRIPOS>BOND
     1     2     1 1
     2     2     3 1
     3     3     8 ar
     4     3     4 ar
     5     8     7 ar
     6     4     5 ar
     7     7     6 ar
     8     5     6 ar
     9     1     9 1
    10     2    10 1
    11     2    11 1
    12     4    12 1
    13     6    13 1
    14     7    14 1
    15     8    15 1
    16     1    16 1
    17    17     1 1
@<TRIPOS>SUBSTRUCTURE
     1 0YC         1 TEMP              0 ****  ****    0 ROOT
