@<TRIPOS>MOLECULE
0YC
   17    17     1     0     0
SMALL
bcc


@<TRIPOS>ATOM
      1 N16         -0.0100    -0.2540    -0.0490 nz         1 0YC      -0.846600
      2 C17          1.4450     0.1160     0.0330 c3         1 0YC       0.184100
      3 C18          1.9230     0.1020     1.4350 ca         1 0YC      -0.330600
      4 C22          2.3650    -1.1020     2.0280 ca         1 0YC       0.435200
      5 N23          2.8460    -1.1740     3.2800 nb         1 0YC      -0.637000
      6 C24          2.9170    -0.0310     3.9910 ca         1 0YC       0.456200
      7 C25          2.5120     1.2220     3.4840 ca         1 0YC      -0.232300
      8 C26          2.0080     1.2850     2.1870 ca         1 0YC      -0.053000
      9 H13         -0.3210    -0.2590    -1.0240 hn         1 0YC       0.459133
     10 H14          1.5590     1.1420    -0.4260 hx         1 0YC       0.115700
     11 H15          2.0150    -0.6310    -0.5950 hx         1 0YC       0.115700
     12 H22          2.3460    -2.0570     1.4690 h4         1 0YC       0.030100
     13 H23          3.3260    -0.1270     5.0170 h4         1 0YC       0.058100
     14 H24          2.6010     2.1270     4.1040 ha         1 0YC       0.177000
     15 H25          1.6980     2.2500     1.7570 ha         1 0YC       0.150000
     16 H2          -0.1550    -1.1840     0.3570 hn         1 0YC       0.459133
     17 H163        -0.5730     0.4200     0.4810 hn         1 0YC       0.459133
@<TRIPOS>BOND
     1     1     2 1   
     2     1     9 1   
     3     1    16 1   
     4     1    17 1   
     5     2     3 1   
     6     2    10 1   
     7     2    11 1   
     8     3     4 ar  
     9     3     8 ar  
    10     4     5 ar  
    11     4    12 1   
    12     5     6 ar  
    13     6     7 ar  
    14     6    13 1   
    15     7     8 ar  
    16     7    14 1   
    17     8    15 1   
@<TRIPOS>SUBSTRUCTURE
     1 0YC         1 TEMP              0 ****  ****    0 ROOT
