@<TRIPOS>MOLECULE
0YF
   30    31     1     0     0
SMALL
bcc


@<TRIPOS>ATOM
      1 C1           0.0000     0.0000     0.0000 c3         1 0YF      -0.129400
      2 C2           1.5070     0.0000     0.0000 c          1 0YF       0.979600
      3 O2           2.1110     0.0000     1.0460 o          1 0YF      -0.902300
      4 C14         -0.5100     0.0020     1.4430 c3         1 0YF       0.027900
      5 C15         -2.7060    -1.1960     1.4450 ca         1 0YF      -0.105500
      6 C16         -4.0860    -1.2010     1.4460 ca         1 0YF      -0.099500
      7 C17         -4.7850     0.0050     1.4380 cp         1 0YF      -0.078000
      8 C18         -2.0170     0.0030     1.4430 ca         1 0YF      -0.044300
      9 C19         -6.2690     0.0060     1.4390 cp         1 0YF       0.004000
     10 C20         -6.9680     1.2120     1.4310 ca         1 0YF      -0.111000
     11 C21         -8.3480     1.2070     1.4330 ca         1 0YF      -0.101000
     12 C22         -8.3490    -1.1920     1.4410 ca         1 0YF      -0.101000
     13 C23         -6.9690    -1.1990     1.4410 ca         1 0YF      -0.111000
     14 C27         -9.0370     0.0080     1.4410 ca         1 0YF      -0.124000
     15 C30         -4.0850     1.2100     1.4300 ca         1 0YF      -0.099500
     16 C31         -2.7040     1.2030     1.4420 ca         1 0YF      -0.105500
     17 H1          -0.3610     0.8840    -0.5120 hc         1 0YF       0.007700
     18 H2          -0.3610    -0.8850    -0.5090 hc         1 0YF       0.007700
     19 H16         -0.1480     0.8870     1.9530 hc         1 0YF       0.027700
     20 H17         -0.1490    -0.8820     1.9550 hc         1 0YF       0.027700
     21 H18         -2.1620    -2.1320     1.4510 ha         1 0YF       0.111000
     22 H19         -4.6260    -2.1400     1.4470 ha         1 0YF       0.100000
     23 H20         -6.4280     2.1520     1.4250 ha         1 0YF       0.114000
     24 H21         -8.8920     2.1440     1.4290 ha         1 0YF       0.095000
     25 H22         -8.8940    -2.1280     1.4460 ha         1 0YF       0.095000
     26 H23         -6.4310    -2.1390     1.4420 ha         1 0YF       0.114000
     27 H24        -10.1210     0.0090     1.4410 ha         1 0YF       0.094000
     28 H25         -4.6220     2.1510     1.4270 ha         1 0YF       0.100000
     29 H26         -2.1590     2.1390     1.4360 ha         1 0YF       0.111000
     30 OXT          2.1780    -0.0030    -1.1630 o          1 0YF      -0.902300
@<TRIPOS>BOND
     1     1     2 1   
     2     1     4 1   
     3     1    17 1   
     4     1    18 1   
     5     2     3 1   
     6     2    30 1   
     7     4     8 1   
     8     4    19 1   
     9     4    20 1   
    10     5     6 ar  
    11     5     8 ar  
    12     5    21 1   
    13     6     7 ar  
    14     6    22 1   
    15     7     9 1   
    16     7    15 ar  
    17     8    16 ar  
    18     9    10 ar  
    19     9    13 ar  
    20    10    11 ar  
    21    10    23 1   
    22    11    14 ar  
    23    11    24 1   
    24    12    13 ar  
    25    12    14 ar  
    26    12    25 1   
    27    13    26 1   
    28    14    27 1   
    29    15    16 ar  
    30    15    28 1   
    31    16    29 1   
@<TRIPOS>SUBSTRUCTURE
     1 0YF         1 TEMP              0 ****  ****    0 ROOT
