@<TRIPOS>MOLECULE
molecule
   30    31     1     0     0
SMALL
bcc


@<TRIPOS>ATOM
      1 C1           0.0000     0.0000     0.0000 c3         1 0YF      -0.177400
      2 C2           1.5070     0.0000     0.0000 c          1 0YF       0.890600
      3 O2           2.1110     0.0000     1.0460 o          1 0YF      -0.853300
      4 C14         -0.5100     0.0020     1.4430 c3         1 0YF      -0.031100
      5 C15         -2.7060    -1.1960     1.4450 ca         1 0YF      -0.134500
      6 C16         -4.0860    -1.2010     1.4460 ca         1 0YF      -0.118000
      7 C17         -4.7850     0.0050     1.4380 cp         1 0YF      -0.078000
      8 C18         -2.0170     0.0030     1.4430 ca         1 0YF      -0.041300
      9 C19         -6.2690     0.0060     1.4390 cp         1 0YF      -0.006000
     10 C20         -6.9680     1.2120     1.4310 ca         1 0YF      -0.129000
     11 C21         -8.3480     1.2070     1.4330 ca         1 0YF      -0.129000
     12 C22         -8.3490    -1.1920     1.4410 ca         1 0YF      -0.129000
     13 C23         -6.9690    -1.1990     1.4410 ca         1 0YF      -0.129000
     14 C27         -9.0370     0.0080     1.4410 ca         1 0YF      -0.146000
     15 C30         -4.0850     1.2100     1.4300 ca         1 0YF      -0.118000
     16 C31         -2.7040     1.2030     1.4420 ca         1 0YF      -0.134500
     17 H1          -0.3610     0.8840    -0.5120 hc         1 0YF       0.032700
     18 H2          -0.3610    -0.8850    -0.5090 hc         1 0YF       0.032700
     19 H16         -0.1490    -0.8820     1.9550 hc         1 0YF       0.056700
     20 H17         -0.1480     0.8870     1.9530 hc         1 0YF       0.056700
     21 H18         -2.1620    -2.1320     1.4510 ha         1 0YF       0.136000
     22 H19         -4.6260    -2.1400     1.4470 ha         1 0YF       0.119000
     23 H20         -6.4280     2.1520     1.4250 ha         1 0YF       0.134000
     24 H21         -8.8920     2.1440     1.4290 ha         1 0YF       0.121000
     25 H22         -8.8940    -2.1280     1.4460 ha         1 0YF       0.121000
     26 H23         -6.4310    -2.1390     1.4420 ha         1 0YF       0.134000
     27 H24        -10.1210     0.0090     1.4410 ha         1 0YF       0.118000
     28 H25         -4.6220     2.1510     1.4270 ha         1 0YF       0.119000
     29 H26         -2.1590     2.1390     1.4360 ha         1 0YF       0.136000
     30 OXT          2.1780    -0.0030    -1.1630 o          1 0YF      -0.853300
@<TRIPOS>BOND
     1     1     2 1
     2     1     4 1
     3     2     3 1
     4     4     8 1
     5    16     8 ar
     6    16    15 ar
     7     8     5 ar
     8    15     7 ar
     9     5     6 ar
    10    13    12 ar
    11    13     9 ar
    12     7     6 ar
    13     7     9 1
    14    12    14 ar
    15     9    10 ar
    16    14    11 ar
    17    10    11 ar
    18     1    17 1
    19     1    18 1
    20     4    19 1
    21     4    20 1
    22     5    21 1
    23     6    22 1
    24    10    23 1
    25    11    24 1
    26    12    25 1
    27    13    26 1
    28    14    27 1
    29    15    28 1
    30    16    29 1
    31     2    30 1
@<TRIPOS>SUBSTRUCTURE
     1 0YF         1 TEMP              0 ****  ****    0 ROOT
