@<TRIPOS>MOLECULE
0YH
   64    67     1     0     0
SMALL
bcc


@<TRIPOS>ATOM
      1 C1           1.1820     1.7260    -0.8170 c3         1 0YH      -0.057800
      2 C2          13.0660     2.8050    -2.9660 c3         1 0YH      -0.057800
      3 C3           5.3780    -1.7180     6.7080 c3         1 0YH      -0.086433
      4 C4           7.8220    -1.6090     6.2790 c3         1 0YH      -0.086433
      5 C5           6.4220    -3.2450     5.0420 c3         1 0YH      -0.086433
      6 C6          14.7260     6.7000    -5.8250 c3         1 0YH       0.113700
      7 C7           3.5420     1.1110    -0.2690 ca         1 0YH      -0.127000
      8 C8           1.9180     1.1930     1.5130 ca         1 0YH      -0.127000
      9 C9           4.5300     0.7330     0.6340 ca         1 0YH      -0.119500
     10 C10          2.8930     0.8240     2.4340 ca         1 0YH      -0.119500
     11 C11         11.4730     6.6100    -4.1820 ca         1 0YH      -0.166000
     12 C12         10.7180     5.7680    -3.3820 ca         1 0YH      -0.082000
     13 C13         13.2630     4.9570    -4.1840 ca         1 0YH      -0.213000
     14 C14          9.5390     4.2210    -1.0480 cc         1 0YH      -0.325300
     15 C15          7.1350     0.2150     4.1570 cc         1 0YH      -0.235300
     16 C16          2.2300     1.3450     0.1580 ca         1 0YH      -0.068300
     17 C17         12.4920     4.1090    -3.3750 ca         1 0YH      -0.006300
     18 C18          4.2150     0.6020     2.0010 ca         1 0YH      -0.006200
     19 C19         12.7560     6.1950    -4.5850 ca         1 0YH       0.133100
     20 C20         11.2100     4.5160    -2.9710 ca         1 0YH      -0.153500
     21 C21         10.3540     3.7000    -2.1250 cc         1 0YH       0.379800
     22 C22          6.2210    -0.8300     4.5610 cc         1 0YH       0.312600
     23 C23          8.8580     3.0880    -0.5370 cd         1 0YH       0.009300
     24 C24          6.4760     0.8990     3.1170 cd         1 0YH      -0.012700
     25 C25          7.6010     1.8870     1.1990 c          1 0YH       0.756100
     26 C26          6.4590    -1.8420     5.6390 c3         1 0YH      -0.072300
     27 N27          9.2690     1.9930    -1.3260 na         1 0YH      -0.000600
     28 N28         10.1680     2.3470    -2.2370 nd         1 0YH      -0.503800
     29 N29          5.0830    -0.7760     3.8070 nd         1 0YH      -0.478800
     30 N30          7.8910     3.0640     0.4750 ns         1 0YH      -0.435100
     31 N31          6.9090     2.0390     2.4270 ns         1 0YH      -0.426100
     32 N32          5.2270     0.2290     2.9340 na         1 0YH       0.144300
     33 O33          7.9390     0.7600     0.7700 o          1 0YH      -0.611100
     34 H1           0.3870     2.3420    -0.3300 hc         1 0YH       0.048700
     35 H2           1.6170     2.3130    -1.6630 hc         1 0YH       0.048700
     36 H3           0.7040     0.8060    -1.2390 hc         1 0YH       0.048700
     37 H4          12.5860     1.9770    -3.5460 hc         1 0YH       0.051033
     38 H5          14.1670     2.7720    -3.1550 hc         1 0YH       0.051033
     39 H6          12.8910     2.6200    -1.8770 hc         1 0YH       0.051033
     40 H7           5.3700    -0.6860     7.1330 hc         1 0YH       0.039478
     41 H8           5.5790    -2.4430     7.5330 hc         1 0YH       0.039478
     42 H9           4.3730    -1.9380     6.2770 hc         1 0YH       0.039478
     43 H10          8.6330    -1.7080     5.5180 hc         1 0YH       0.039478
     44 H11          7.9940    -2.3650     7.0830 hc         1 0YH       0.039478
     45 H12          7.8730    -0.5900     6.7310 hc         1 0YH       0.039478
     46 H13          7.1840    -3.3410     4.2320 hc         1 0YH       0.039478
     47 H14          6.6430    -3.9980     5.8350 hc         1 0YH       0.039478
     48 H15          5.4140    -3.4620     4.6140 hc         1 0YH       0.039478
     49 H16         14.6620     5.7710    -6.4420 h1         1 0YH       0.044367
     50 H17         15.0650     7.5660    -6.4480 h1         1 0YH       0.044367
     51 H18         15.4120     6.5470    -4.9570 h1         1 0YH       0.044367
     52 H19          3.7970     1.2160    -1.3350 ha         1 0YH       0.140500
     53 H20          0.8870     1.3650     1.8580 ha         1 0YH       0.140500
     54 H21          5.5530     0.5250     0.2730 ha         1 0YH       0.156500
     55 H22          2.6230     0.6960     3.4940 ha         1 0YH       0.156500
     56 H23         11.0900     7.5870    -4.5080 ha         1 0YH       0.149000
     57 H24          9.7100     6.0790    -3.0630 ha         1 0YH       0.136000
     58 H25         14.2660     4.6320    -4.4950 ha         1 0YH       0.138000
     59 H26          9.4770     5.2480    -0.7160 ha         1 0YH       0.167000
     60 H27          8.1170     0.4270     4.5650 ha         1 0YH       0.176000
     61 H28          9.0650     1.0320    -1.1370 hn         1 0YH       0.349700
     62 H29          7.7740     3.9480     0.9240 hn         1 0YH       0.327500
     63 H30          6.3120     2.8340     2.5260 hn         1 0YH       0.315500
     64 O34         13.4340     7.0990    -5.3800 os         1 0YH      -0.327900
@<TRIPOS>BOND
     1     1    16 1   
     2     1    34 1   
     3     1    35 1   
     4     1    36 1   
     5     2    17 1   
     6     2    37 1   
     7     2    38 1   
     8     2    39 1   
     9     3    26 1   
    10     3    40 1   
    11     3    41 1   
    12     3    42 1   
    13     4    26 1   
    14     4    43 1   
    15     4    44 1   
    16     4    45 1   
    17     5    26 1   
    18     5    46 1   
    19     5    47 1   
    20     5    48 1   
    21     6    49 1   
    22     6    50 1   
    23     6    51 1   
    24     6    64 1   
    25     7     9 ar  
    26     7    16 ar  
    27     7    52 1   
    28     8    10 ar  
    29     8    16 ar  
    30     8    53 1   
    31     9    18 ar  
    32     9    54 1   
    33    10    18 ar  
    34    10    55 1   
    35    11    12 ar  
    36    11    19 ar  
    37    11    56 1   
    38    12    20 ar  
    39    12    57 1   
    40    13    17 ar  
    41    13    19 ar  
    42    13    58 1   
    43    14    21 1   
    44    14    23 2   
    45    14    59 1   
    46    15    22 1   
    47    15    24 2   
    48    15    60 1   
    49    17    20 ar  
    50    18    32 1   
    51    19    64 1   
    52    20    21 1   
    53    21    28 2   
    54    22    26 1   
    55    22    29 2   
    56    23    27 1   
    57    23    30 1   
    58    24    31 1   
    59    24    32 1   
    60    25    30 1   
    61    25    31 1   
    62    25    33 2   
    63    27    28 1   
    64    27    61 1   
    65    29    32 1   
    66    30    62 1   
    67    31    63 1   
@<TRIPOS>SUBSTRUCTURE
     1 0YH         1 TEMP              0 ****  ****    0 ROOT
