@<TRIPOS>MOLECULE
molecule
   64    67     1     0     0
SMALL
bcc


@<TRIPOS>ATOM
      1 C1           0.0000     0.0000     0.0000 c3         1 0YH      -0.047800
      2 C2          13.4840    -2.8990    -0.9870 c3         1 0YH      -0.046800
      3 C3           8.1560     2.0880     5.0630 c3         1 0YH      -0.080433
      4 C4           8.0390    -0.1850     6.0930 c3         1 0YH      -0.080433
      5 C5           6.1900     1.4540     6.4690 c3         1 0YH      -0.080433
      6 C6          16.3650    -3.9600     4.3280 c3         1 0YH       0.129700
      7 C7           2.5020     0.0000     0.0000 ca         1 0YH      -0.109500
      8 C8           1.3540    -0.0190     2.1040 ca         1 0YH      -0.109500
      9 C9           3.7170     0.0000     0.6590 ca         1 0YH      -0.143000
     10 C10          2.5650    -0.0150     2.7680 ca         1 0YH      -0.143000
     11 C11         13.9260    -3.7660     3.1840 ca         1 0YH      -0.234000
     12 C12         12.6640    -3.6740     2.6350 ca         1 0YH      -0.067000
     13 C13         14.9010    -3.2980     1.0360 ca         1 0YH      -0.166000
     14 C14         10.0750    -2.5740     1.2440 cc         1 0YH      -0.251300
     15 C15          7.0800    -0.3770     3.2420 cc         1 0YH      -0.345300
     16 C16          1.3230    -0.0070     0.7220 ca         1 0YH      -0.090300
     17 C17         13.6420    -3.2040     0.4800 ca         1 0YH      -0.017300
     18 C18          3.7520    -0.0080     2.0470 ca         1 0YH       0.032800
     19 C19         15.0470    -3.5790     2.3880 ca         1 0YH       0.147100
     20 C20         12.5150    -3.3920     1.2790 ca         1 0YH      -0.153500
     21 C21         11.1830    -3.2620     0.7150 cc         1 0YH       0.376800
     22 C22          6.5130     0.4260     4.2360 cc         1 0YH       0.370600
     23 C23          9.0300    -2.7540     0.3950 cd         1 0YH       0.118300
     24 C24          6.1200    -0.6290     2.3110 cd         1 0YH       0.069300
     25 C25          7.4650    -1.9540     0.8710 c          1 0YH       0.817100
     26 C26          7.2220     0.9440     5.4610 c3         1 0YH      -0.084300
     27 N27          9.4620    -3.5300    -0.6330 na         1 0YH      -0.130600
     28 N28         10.8110    -3.8350    -0.4100 nd         1 0YH      -0.521800
     29 N29          5.2620     0.6520     3.9240 nd         1 0YH      -0.499800
     30 N30          7.6140    -2.6890    -0.2490 ns         1 0YH      -0.610100
     31 N31          6.2750    -1.3890     1.1520 ns         1 0YH      -0.460100
     32 N32          4.9820    -0.0040     2.7180 na         1 0YH       0.121300
     33 O33          8.4050    -1.8020     1.6270 o          1 0YH      -0.549100
     34 H1          -0.8000     0.1540     0.7140 hc         1 0YH       0.046033
     35 H2          -0.1420    -0.9490    -0.5020 hc         1 0YH       0.046033
     36 H3          -0.0090     0.8000    -0.7300 hc         1 0YH       0.046033
     37 H4          13.0930    -3.7710    -1.4970 hc         1 0YH       0.049367
     38 H5          14.4480    -2.6370    -1.4070 hc         1 0YH       0.049367
     39 H6          12.7990    -2.0700    -1.1120 hc         1 0YH       0.049367
     40 H7           8.9280     1.7120     4.4030 hc         1 0YH       0.040367
     41 H8           7.5890     2.8580     4.5530 hc         1 0YH       0.040367
     42 H9           8.6140     2.5060     5.9520 hc         1 0YH       0.040367
     43 H10          7.4140    -1.0630     6.2060 hc         1 0YH       0.040367
     44 H11          8.3990     0.1310     7.0650 hc         1 0YH       0.040367
     45 H12          8.8820    -0.4210     5.4550 hc         1 0YH       0.040367
     46 H13          6.6970     1.7870     7.3670 hc         1 0YH       0.040367
     47 H14          5.5030     0.6550     6.7180 hc         1 0YH       0.040367
     48 H15          5.6410     2.2820     6.0370 hc         1 0YH       0.040367
     49 H16         15.8590    -3.1820     4.8870 h1         1 0YH       0.040367
     50 H17         17.4030    -4.0090     4.6370 h1         1 0YH       0.040367
     51 H18         15.8860    -4.9120     4.5190 h1         1 0YH       0.040367
     52 H19          2.4740     0.0070    -1.0830 ha         1 0YH       0.138000
     53 H20          0.4280    -0.0250     2.6660 ha         1 0YH       0.138000
     54 H21          4.6400     0.0050     0.0930 ha         1 0YH       0.146000
     55 H22          2.5890    -0.0230     3.8510 ha         1 0YH       0.146000
     56 H23         14.0430    -3.9840     4.2390 ha         1 0YH       0.133000
     57 H24         11.7900    -3.8200     3.2580 ha         1 0YH       0.136000
     58 H25         15.7770    -3.1520     0.4160 ha         1 0YH       0.144000
     59 H26         10.0520    -2.0220     2.1760 ha         1 0YH       0.178000
     60 H27          8.0850    -0.7800     3.2460 ha         1 0YH       0.194000
     61 H28          8.9120    -3.8310    -1.4130 hn         1 0YH       0.300700
     62 H29          7.4280    -3.1830    -1.1000 hn         1 0YH       0.408500
     63 H30          5.4900    -1.5520     0.5520 hn         1 0YH       0.335500
     64 O34         16.2880    -3.6690     2.9310 os         1 0YH      -0.329900
@<TRIPOS>BOND
     1    64     6 1
     2    64    19 1
     3     4    26 1
     4     3    26 1
     5    11    19 ar
     6    11    12 ar
     7    19    13 ar
     8    26     5 1
     9    26    22 1
    10    12    20 ar
    11    13    17 ar
    12    22    15 1
    13    22    29 2
    14    15    24 2
    15    20    17 ar
    16    20    21 1
    17    17     2 1
    18    33    25 2
    19    14    21 1
    20    14    23 2
    21    21    28 2
    22    29    32 1
    23    24    31 1
    24    24    32 1
    25    25    31 1
    26    25    30 1
    27    23    30 1
    28    23    27 1
    29    32    18 1
    30    28    27 1
    31    18    10 ar
    32    18     9 ar
    33    10     8 ar
    34     9     7 ar
    35     8    16 ar
    36     7    16 ar
    37    16     1 1
    38     1    34 1
    39     1    35 1
    40     1    36 1
    41     2    37 1
    42     2    38 1
    43     2    39 1
    44     3    40 1
    45     3    41 1
    46     3    42 1
    47     4    43 1
    48     4    44 1
    49     4    45 1
    50     5    46 1
    51     5    47 1
    52     5    48 1
    53     6    49 1
    54     6    50 1
    55     6    51 1
    56     7    52 1
    57     8    53 1
    58     9    54 1
    59    10    55 1
    60    11    56 1
    61    12    57 1
    62    13    58 1
    63    14    59 1
    64    15    60 1
    65    27    61 1
    66    30    62 1
    67    31    63 1
@<TRIPOS>SUBSTRUCTURE
     1 0YH         1 TEMP              0 ****  ****    0 ROOT
