@<TRIPOS>MOLECULE
molecule
   67    70     1     0     0
SMALL
bcc


@<TRIPOS>ATOM
      1 C1           0.0000     0.0000     0.0000 c3         1 0YJ      -0.047800
      2 C2           7.1120    -4.6680    -7.7710 c3         1 0YJ      -0.108100
      3 C3           6.8720    -2.1830    -7.6780 c3         1 0YJ      -0.108100
      4 C4           8.1560     2.0940     5.0610 c3         1 0YJ      -0.080433
      5 C5           8.0400    -0.1790     6.0910 c3         1 0YJ      -0.080433
      6 C6           6.1910     1.4590     6.4680 c3         1 0YJ      -0.080433
      7 C7          10.8170    -4.4100     0.3520 ca         1 0YJ      -0.139000
      8 C8          11.2100    -4.7310    -0.9140 ca         1 0YJ      -0.087000
      9 C9           9.6260    -3.7320     0.5750 ca         1 0YJ      -0.107000
     10 C10          2.5020     0.0000     0.0000 ca         1 0YJ      -0.110000
     11 C11          1.3540    -0.0190     2.1040 ca         1 0YJ      -0.110000
     12 C12          3.7170     0.0000     0.6580 ca         1 0YJ      -0.144500
     13 C13          2.5660    -0.0130     2.7680 ca         1 0YJ      -0.144500
     14 C14         10.5320    -4.5590    -3.4050 cc         1 0YJ      -0.099200
     15 C15          7.0810    -0.3730     3.2410 cc         1 0YJ      -0.339300
     16 C16          1.3230    -0.0070     0.7220 ca         1 0YJ      -0.091300
     17 C17          3.7520    -0.0070     2.0460 ca         1 0YJ       0.038800
     18 C18         10.4060    -4.3760    -2.0080 ca         1 0YJ      -0.100800
     19 C19          8.8150    -3.3690    -0.4850 ca         1 0YJ       0.044600
     20 C20          9.4420    -4.0040    -3.9960 cd         1 0YJ      -0.139300
     21 C21          6.5130     0.4300     4.2350 cc         1 0YJ       0.368600
     22 C22          6.1210    -0.6260     2.3100 cd         1 0YJ       0.077300
     23 C23          9.1980    -3.6880    -1.7900 ca         1 0YJ      -0.054200
     24 C24          7.7910    -3.3630    -7.3510 c3         1 0YJ       0.112700
     25 C25          9.1760    -3.9750    -5.4420 c          1 0YJ       0.695300
     26 C26          7.4660    -1.9510     0.8690 c          1 0YJ       0.789100
     27 C27          7.2230     0.9490     5.4590 c3         1 0YJ      -0.084300
     28 N28          8.6220    -3.4700    -3.0210 na         1 0YJ      -0.181400
     29 N29          5.2630     0.6540     3.9230 nd         1 0YJ      -0.503800
     30 N30          7.6160    -2.6860    -0.2510 ns         1 0YJ      -0.484100
     31 N31          6.2750    -1.3860     1.1510 ns         1 0YJ      -0.471100
     32 N32          8.0550    -3.3920    -5.9100 ns         1 0YJ      -0.584900
     33 N33          4.9820    -0.0020     2.7170 na         1 0YJ       0.115300
     34 O34          9.9690    -4.4760    -6.2160 o          1 0YJ      -0.591100
     35 O35          8.4060    -1.7970     1.6260 o          1 0YJ      -0.619100
     36 H1          -0.6010    -0.8350     0.3390 hc         1 0YJ       0.045367
     37 H2           0.1700    -0.0870    -1.0660 hc         1 0YJ       0.045367
     38 H3          -0.5200     0.9270     0.2080 hc         1 0YJ       0.045367
     39 H4           6.2410    -4.8380    -7.1500 hc         1 0YJ       0.043200
     40 H5           6.8080    -4.6000    -8.8080 hc         1 0YJ       0.043200
     41 H6           7.8060    -5.4910    -7.6510 hc         1 0YJ       0.043200
     42 H7           6.7190    -2.1310    -8.7490 hc         1 0YJ       0.043200
     43 H8           5.9180    -2.3200    -7.1830 hc         1 0YJ       0.043200
     44 H9           7.3290    -1.2640    -7.3330 hc         1 0YJ       0.043200
     45 H10          8.5960     2.5270     5.9510 hc         1 0YJ       0.040033
     46 H11          8.9410     1.7130     4.4190 hc         1 0YJ       0.040033
     47 H12          7.5920     2.8520     4.5320 hc         1 0YJ       0.040033
     48 H13          7.4220    -1.0640     6.1860 hc         1 0YJ       0.040033
     49 H14          8.8950    -0.4010     5.4640 hc         1 0YJ       0.040033
     50 H15          8.3820     0.1280     7.0720 hc         1 0YJ       0.040033
     51 H16          5.6420     2.2870     6.0370 hc         1 0YJ       0.040033
     52 H17          5.5030     0.6600     6.7170 hc         1 0YJ       0.040033
     53 H18          6.6990     1.7910     7.3660 hc         1 0YJ       0.040033
     54 H19         11.4410    -4.6880     1.1930 ha         1 0YJ       0.137000
     55 H20         12.1410    -5.2600    -1.0750 ha         1 0YJ       0.135000
     56 H21          9.3300    -3.4850     1.5870 ha         1 0YJ       0.178000
     57 H22          2.4740     0.0050    -1.0830 ha         1 0YJ       0.136500
     58 H23          0.4290    -0.0240     2.6660 ha         1 0YJ       0.136500
     59 H24          4.6400     0.0050     0.0920 ha         1 0YJ       0.145000
     60 H25          2.5900    -0.0210     3.8510 ha         1 0YJ       0.145000
     61 H26         11.3090    -5.1250    -3.9060 ha         1 0YJ       0.174000
     62 H27          8.1180    -0.6790     3.1850 ha         1 0YJ       0.203000
     63 H28          8.7250    -3.2530    -7.8870 h1         1 0YJ       0.082700
     64 H29          7.7520    -3.0010    -3.1830 hn         1 0YJ       0.287700
     65 H30          6.8570    -2.7720    -0.8980 hn         1 0YJ       0.309500
     66 H31          5.4890    -1.5540     0.5550 hn         1 0YJ       0.324500
     67 H32          7.4160    -2.9540    -5.2760 hn         1 0YJ       0.301500
@<TRIPOS>BOND
     1     5    27 1   
     2     4    27 1   
     3    27     6 1   
     4    27    21 1   
     5     7     9 ar  
     6     7     8 ar  
     7    21    15 1   
     8    21    29 2   
     9    15    22 2   
    10     9    19 ar  
    11    35    26 2   
    12     8    18 ar  
    13    26    31 1   
    14    26    30 1   
    15    29    33 1   
    16    22    31 1   
    17    22    33 1   
    18    19    30 1   
    19    19    23 ar  
    20    33    17 1   
    21    18    23 ar  
    22    18    14 1   
    23    23    28 1   
    24    14    20 2   
    25    17    13 ar  
    26    17    12 ar  
    27    28    20 1   
    28    13    11 ar  
    29    20    25 1   
    30    12    10 ar  
    31    11    16 ar  
    32    25    32 1   
    33    25    34 2   
    34    10    16 ar  
    35    32    24 1   
    36    16     1 1   
    37    24     3 1   
    38    24     2 1   
    39     1    36 1   
    40     1    37 1   
    41     1    38 1   
    42     2    39 1   
    43     2    40 1   
    44     2    41 1   
    45     3    42 1   
    46     3    43 1   
    47     3    44 1   
    48     4    45 1   
    49     4    46 1   
    50     4    47 1   
    51     5    48 1   
    52     5    49 1   
    53     5    50 1   
    54     6    51 1   
    55     6    52 1   
    56     6    53 1   
    57     7    54 1   
    58     8    55 1   
    59     9    56 1   
    60    10    57 1   
    61    11    58 1   
    62    12    59 1   
    63    13    60 1   
    64    14    61 1   
    65    15    62 1   
    66    24    63 1   
    67    28    64 1   
    68    30    65 1   
    69    31    66 1   
    70    32    67 1   
@<TRIPOS>SUBSTRUCTURE
     1 0YJ         1 TEMP              0 ****  ****    0 ROOT
