@<TRIPOS>MOLECULE
0YJ
   67    70     1     0     0
SMALL
bcc


@<TRIPOS>ATOM
      1 C1           0.0000     0.0000     0.0000 c3         1 0YJ       0.063200
      2 C2           7.1120    -4.6680    -7.7710 c3         1 0YJ      -0.011600
      3 C3           6.8720    -2.1830    -7.6780 c3         1 0YJ      -0.011600
      4 C4           8.1560     2.0940     5.0610 c3         1 0YJ       0.006900
      5 C5           8.0400    -0.1790     6.0910 c3         1 0YJ       0.006900
      6 C6           6.1910     1.4590     6.4680 c3         1 0YJ       0.006900
      7 C7          10.8170    -4.4100     0.3520 ca         1 0YJ      -0.112000
      8 C8          11.2100    -4.7310    -0.9140 ca         1 0YJ      -0.048000
      9 C9           9.6260    -3.7320     0.5750 ca         1 0YJ      -0.089000
     10 C10          2.5020     0.0000     0.0000 ca         1 0YJ      -0.083000
     11 C11          1.3540    -0.0190     2.1040 ca         1 0YJ      -0.083000
     12 C12          3.7170     0.0000     0.6580 ca         1 0YJ      -0.109500
     13 C13          2.5660    -0.0130     2.7680 ca         1 0YJ      -0.109500
     14 C14         10.5320    -4.5590    -3.4050 cc         1 0YJ      -0.055200
     15 C15          7.0810    -0.3730     3.2410 cc         1 0YJ      -0.331300
     16 C16          1.3230    -0.0070     0.7220 ca         1 0YJ      -0.089300
     17 C17          3.7520    -0.0070     2.0460 ca         1 0YJ      -0.135200
     18 C18         10.4060    -4.3760    -2.0080 ca         1 0YJ      -0.105800
     19 C19          8.8150    -3.3690    -0.4850 ca         1 0YJ      -0.093400
     20 C20          9.4420    -4.0040    -3.9960 cd         1 0YJ      -0.343300
     21 C21          6.5130     0.4300     4.2350 cc         1 0YJ       0.392600
     22 C22          6.1210    -0.6260     2.3100 cd         1 0YJ      -0.235700
     23 C23          9.1980    -3.6880    -1.7900 ca         1 0YJ      -0.238200
     24 C24          7.7910    -3.3630    -7.3510 c3         1 0YJ       0.019700
     25 C25          9.1760    -3.9750    -5.4420 c          1 0YJ       0.629300
     26 C26          7.4660    -1.9510     0.8690 c          1 0YJ       0.554100
     27 C27          7.2230     0.9490     5.4590 c3         1 0YJ      -0.081300
     28 N28          8.6220    -3.4700    -3.0210 na         1 0YJ       0.356600
     29 N29          5.2630     0.6540     3.9230 nd         1 0YJ      -0.651800
     30 N30          7.6160    -2.6860    -0.2510 ns         1 0YJ      -0.042100
     31 N31          6.2750    -1.3860     1.1510 ns         1 0YJ      -0.025100
     32 N32          8.0550    -3.3920    -5.9100 ns         1 0YJ      -0.203900
     33 N33          4.9820    -0.0020     2.7170 na         1 0YJ       0.579300
     34 O34          9.9690    -4.4760    -6.2160 o          1 0YJ      -0.632100
     35 O35          8.4060    -1.7970     1.6260 o          1 0YJ      -0.664100
     36 H1          -0.6010    -0.8350     0.3390 hc         1 0YJ       0.009700
     37 H2           0.1700    -0.0870    -1.0660 hc         1 0YJ       0.009700
     38 H3          -0.5200     0.9270     0.2080 hc         1 0YJ       0.009700
     39 H4           6.2410    -4.8380    -7.1500 hc         1 0YJ       0.010533
     40 H5           6.8080    -4.6000    -8.8080 hc         1 0YJ       0.010533
     41 H6           7.8060    -5.4910    -7.6510 hc         1 0YJ       0.010533
     42 H7           6.7190    -2.1310    -8.7490 hc         1 0YJ       0.010533
     43 H8           5.9180    -2.3200    -7.1830 hc         1 0YJ       0.010533
     44 H9           7.3290    -1.2640    -7.3330 hc         1 0YJ       0.010533
     45 H10          8.5960     2.5270     5.9510 hc         1 0YJ       0.007922
     46 H11          8.9410     1.7130     4.4190 hc         1 0YJ       0.007922
     47 H12          7.5920     2.8520     4.5320 hc         1 0YJ       0.007922
     48 H13          7.4220    -1.0640     6.1860 hc         1 0YJ       0.007922
     49 H14          8.8950    -0.4010     5.4640 hc         1 0YJ       0.007922
     50 H15          8.3820     0.1280     7.0720 hc         1 0YJ       0.007922
     51 H16          5.6420     2.2870     6.0370 hc         1 0YJ       0.007922
     52 H17          5.5030     0.6600     6.7170 hc         1 0YJ       0.007922
     53 H18          6.6990     1.7910     7.3660 hc         1 0YJ       0.007922
     54 H19         11.4410    -4.6880     1.1930 ha         1 0YJ       0.107000
     55 H20         12.1410    -5.2600    -1.0750 ha         1 0YJ       0.104000
     56 H21          9.3300    -3.4850     1.5870 ha         1 0YJ       0.157000
     57 H22          2.4740     0.0050    -1.0830 ha         1 0YJ       0.109500
     58 H23          0.4290    -0.0240     2.6660 ha         1 0YJ       0.109500
     59 H24          4.6400     0.0050     0.0920 ha         1 0YJ       0.120000
     60 H25          2.5900    -0.0210     3.8510 ha         1 0YJ       0.120000
     61 H26         11.3090    -5.1250    -3.9060 ha         1 0YJ       0.144000
     62 H27          8.1180    -0.6790     3.1850 ha         1 0YJ       0.193000
     63 H28          8.7250    -3.2530    -7.8870 h1         1 0YJ       0.058700
     64 H29          7.7520    -3.0010    -3.1830 hn         1 0YJ       0.105700
     65 H30          6.8570    -2.7720    -0.8980 hn         1 0YJ       0.147500
     66 H31          5.4890    -1.5540     0.5550 hn         1 0YJ       0.168500
     67 H32          7.4160    -2.9540    -5.2760 hn         1 0YJ       0.161500
@<TRIPOS>BOND
     1     1    16 1   
     2     1    36 1   
     3     1    37 1   
     4     1    38 1   
     5     2    24 1   
     6     2    39 1   
     7     2    40 1   
     8     2    41 1   
     9     3    24 1   
    10     3    42 1   
    11     3    43 1   
    12     3    44 1   
    13     4    27 1   
    14     4    45 1   
    15     4    46 1   
    16     4    47 1   
    17     5    27 1   
    18     5    48 1   
    19     5    49 1   
    20     5    50 1   
    21     6    27 1   
    22     6    51 1   
    23     6    52 1   
    24     6    53 1   
    25     7     8 ar  
    26     7     9 ar  
    27     7    54 1   
    28     8    18 ar  
    29     8    55 1   
    30     9    19 ar  
    31     9    56 1   
    32    10    12 ar  
    33    10    16 ar  
    34    10    57 1   
    35    11    13 ar  
    36    11    16 ar  
    37    11    58 1   
    38    12    17 ar  
    39    12    59 1   
    40    13    17 ar  
    41    13    60 1   
    42    14    18 1   
    43    14    20 2   
    44    14    61 1   
    45    15    21 1   
    46    15    22 2   
    47    15    62 1   
    48    17    33 1   
    49    18    23 ar  
    50    19    23 ar  
    51    19    30 1   
    52    20    25 1   
    53    20    28 1   
    54    21    27 1   
    55    21    29 2   
    56    22    31 1   
    57    22    33 1   
    58    23    28 1   
    59    24    32 1   
    60    24    63 1   
    61    25    32 1   
    62    25    34 2   
    63    26    30 1   
    64    26    31 1   
    65    26    35 2   
    66    28    64 1   
    67    29    33 1   
    68    30    65 1   
    69    31    66 1   
    70    32    67 1   
@<TRIPOS>SUBSTRUCTURE
     1 0YJ         1 TEMP              0 ****  ****    0 ROOT
