@<TRIPOS>MOLECULE
0YJ
   68    71     1     0     0
SMALL
bcc


@<TRIPOS>ATOM
      1 C1          -0.6810     1.6070     3.9530 c3         1 0YJ      -0.061800
      2 C2          11.0220     2.0350    -4.6520 c3         1 0YJ      -0.133600
      3 C3          10.7420     1.7900    -7.1250 c3         1 0YJ      -0.133600
      4 C4           7.3930    -2.7560     3.9430 c3         1 0YJ      -0.087100
      5 C5           8.7820    -1.8670     2.0870 c3         1 0YJ      -0.087100
      6 C6           6.9150    -3.4300     1.5950 c3         1 0YJ      -0.087100
      7 C7           7.1840     7.2980    -0.9660 ca         1 0YJ      -0.122000
      8 C8           7.7830     6.9790    -2.1630 ca         1 0YJ      -0.074000
      9 C9           6.4600     6.3430    -0.2150 ca         1 0YJ      -0.108000
     10 C10          1.1570     1.4980     2.2590 ca         1 0YJ      -0.122000
     11 C11          1.5090     0.5000     4.4260 ca         1 0YJ      -0.122000
     12 C12          2.4300     1.1040     1.8590 ca         1 0YJ      -0.126500
     13 C13          2.7880     0.1030     4.0480 ca         1 0YJ      -0.126500
     14 C14          8.1610     4.9970    -3.8010 cc         1 0YJ      -0.078200
     15 C15          6.7890     0.1990     1.8840 cc         1 0YJ      -0.256300
     16 C16          0.6830     1.2030     3.5420 ca         1 0YJ      -0.062300
     17 C17          3.2650     0.4110     2.7590 ca         1 0YJ      -0.009200
     18 C18          7.6670     5.6620    -2.6410 ca         1 0YJ      -0.110800
     19 C19          6.2910     5.0270    -0.6460 ca         1 0YJ       0.033600
     20 C20          7.7150     3.6570    -3.7330 cd         1 0YJ      -0.229300
     21 C21          6.4360    -1.1270     2.3510 cc         1 0YJ       0.332600
     22 C22          5.5860     0.9290     1.9180 cd         1 0YJ      -0.007700
     23 C23          6.9120     4.6790    -1.8870 ca         1 0YJ       0.020800
     24 C24         10.0320     1.7850    -5.7790 c3         1 0YJ       0.133500
     25 C25          7.9300     2.5540    -4.6360 c          1 0YJ       0.586300
     26 C26          5.9710     2.8660     0.5030 c          1 0YJ       0.763100
     27 C27          7.3740    -2.2860     2.4930 c3         1 0YJ      -0.075300
     28 N28          6.9110     3.4870    -2.5870 na         1 0YJ      -0.095400
     29 N29          5.1080    -1.1830     2.6510 nd         1 0YJ      -0.480800
     30 N30          5.4690     4.1190     0.0530 ns         1 0YJ      -0.452100
     31 N31          5.3510     2.2760     1.6180 ns         1 0YJ      -0.421100
     32 N32          8.9120     2.8050    -5.7640 ny         1 0YJ      -0.675800
     33 N33          4.5690     0.0100     2.3420 na         1 0YJ       0.142300
     34 O34          7.4200     1.4380    -4.6180 o          1 0YJ      -0.446100
     35 O35          6.9310     2.3140    -0.0830 o          1 0YJ      -0.632100
     36 H1          -1.0400     2.4830     3.3580 hc         1 0YJ       0.053033
     37 H2          -1.3930     0.7580     3.7900 hc         1 0YJ       0.053033
     38 H3          -0.7070     1.8800     5.0370 hc         1 0YJ       0.053033
     39 H4          10.5180     2.0330    -3.6540 hc         1 0YJ       0.077533
     40 H5          11.5640     3.0020    -4.7890 hc         1 0YJ       0.077533
     41 H6          11.7770     1.2070    -4.6610 hc         1 0YJ       0.077533
     42 H7          10.0380     1.5720    -7.9650 hc         1 0YJ       0.077533
     43 H8          11.5200     0.9850    -7.1090 hc         1 0YJ       0.077533
     44 H9          11.2540     2.7640    -7.3160 hc         1 0YJ       0.077533
     45 H10          6.3840    -3.1230     4.2490 hc         1 0YJ       0.041033
     46 H11          8.1260    -3.5910     4.0590 hc         1 0YJ       0.041033
     47 H12          7.6920    -1.9200     4.6190 hc         1 0YJ       0.041033
     48 H13          9.1430    -1.0320     2.7340 hc         1 0YJ       0.041033
     49 H14          9.4780    -2.7330     2.2000 hc         1 0YJ       0.041033
     50 H15          8.7990    -1.5320     1.0230 hc         1 0YJ       0.041033
     51 H16          7.6350    -4.2800     1.6710 hc         1 0YJ       0.041033
     52 H17          5.9040    -3.7900     1.9050 hc         1 0YJ       0.041033
     53 H18          6.8660    -3.0950     0.5320 hc         1 0YJ       0.041033
     54 H19          7.2630     8.3210    -0.5630 ha         1 0YJ       0.158000
     55 H20          8.3430     7.7280    -2.7440 ha         1 0YJ       0.154000
     56 H21          6.0140     6.6740     0.7390 ha         1 0YJ       0.153000
     57 H22          0.5100     2.0360     1.5490 ha         1 0YJ       0.144000
     58 H23          1.1420     0.2530     5.4350 ha         1 0YJ       0.144000
     59 H24          2.7590     1.3090     0.8290 ha         1 0YJ       0.148000
     60 H25          3.4150    -0.4590     4.7590 ha         1 0YJ       0.148000
     61 H26          8.7510     5.4670    -4.5850 ha         1 0YJ       0.155000
     62 H27          7.7600     0.5550     1.5560 ha         1 0YJ       0.184000
     63 H28          9.5300     0.7780    -5.6230 hx         1 0YJ       0.125700
     64 H29          6.6590     2.6000    -2.2020 hn         1 0YJ       0.351700
     65 H30          4.8060     4.5750     0.6490 hn         1 0YJ       0.313500
     66 H31          4.4930     2.6570     1.9590 hn         1 0YJ       0.329500
     67 H32          9.3140     3.7420    -5.6820 hn         1 0YJ       0.454800
     68 H322         8.4050     2.7370    -6.6540 hn         1 0YJ       0.454800
@<TRIPOS>BOND
     1     1    16 1   
     2     1    36 1   
     3     1    37 1   
     4     1    38 1   
     5     2    24 1   
     6     2    39 1   
     7     2    40 1   
     8     2    41 1   
     9     3    24 1   
    10     3    42 1   
    11     3    43 1   
    12     3    44 1   
    13     4    27 1   
    14     4    45 1   
    15     4    46 1   
    16     4    47 1   
    17     5    27 1   
    18     5    48 1   
    19     5    49 1   
    20     5    50 1   
    21     6    27 1   
    22     6    51 1   
    23     6    52 1   
    24     6    53 1   
    25     7     8 ar  
    26     7     9 ar  
    27     7    54 1   
    28     8    18 ar  
    29     8    55 1   
    30     9    19 ar  
    31     9    56 1   
    32    10    12 ar  
    33    10    16 ar  
    34    10    57 1   
    35    11    13 ar  
    36    11    16 ar  
    37    11    58 1   
    38    12    17 ar  
    39    12    59 1   
    40    13    17 ar  
    41    13    60 1   
    42    14    18 1   
    43    14    20 2   
    44    14    61 1   
    45    15    21 1   
    46    15    22 2   
    47    15    62 1   
    48    17    33 1   
    49    18    23 ar  
    50    19    23 ar  
    51    19    30 1   
    52    20    25 1   
    53    20    28 1   
    54    21    27 1   
    55    21    29 2   
    56    22    31 1   
    57    22    33 1   
    58    23    28 1   
    59    24    32 1   
    60    24    63 1   
    61    25    32 1   
    62    25    34 2   
    63    26    30 1   
    64    26    31 1   
    65    26    35 2   
    66    28    64 1   
    67    29    33 1   
    68    30    65 1   
    69    31    66 1   
    70    32    67 1   
    71    32    68 1   
@<TRIPOS>SUBSTRUCTURE
     1 0YJ         1 TEMP              0 ****  ****    0 ROOT
