@<TRIPOS>MOLECULE
molecule
   35    36     1     0     0
SMALL
bcc


@<TRIPOS>ATOM
      1 C2A          0.0000     0.0000     0.0000 c3         1 0YN      -0.120400
      2 C35          5.6930     0.0010     0.0220 c3         1 0YN      -0.202800
      3 C2           6.0440     2.2560    -1.4680 cc         1 0YN      -0.322100
      4 S1           7.0760     2.8060    -2.4930 ss         1 0YN       0.325200
      5 C5           8.1820     1.7260    -2.6710 cc         1 0YN      -0.261400
      6 C4           7.8480     0.6010    -1.8160 cd         1 0YN      -0.168300
      7 C4A          8.6620    -0.6830    -1.6680 c3         1 0YN      -0.009800
      8 C5A          9.3560     1.7960    -3.6450 c3         1 0YN       0.020900
      9 C5B         10.3410     2.8670    -3.1790 c3         1 0YN       0.142400
     10 O5G         11.6000     2.2880    -2.9800 oh         1 0YN      -0.604800
     11 N1'          2.1470     0.0000     1.1520 nb         1 0YN      -0.747000
     12 C2'          1.5070     0.0000     0.0000 ca         1 0YN       0.682300
     13 N3'          2.1480     0.0000    -1.1510 nb         1 0YN      -0.765000
     14 C4'          3.4770     0.0000    -1.1880 ca         1 0YN       0.690200
     15 N4'          4.1470     0.0010    -2.4010 nv         1 0YN      -1.066500
     16 C5'          4.1860    -0.0000     0.0150 ca         1 0YN      -0.293900
     17 C6'          3.4720     0.0000     1.1970 ca         1 0YN       0.466200
     18 C3           6.4880     0.9380    -1.0510 cd         1 0YN      -0.046300
     19 H1          -0.3610    -0.8760    -0.5260 hc         1 0YN       0.057033
     20 H2          -0.3610     0.8930    -0.4960 hc         1 0YN       0.057033
     21 H3          -0.3610    -0.0170     1.0210 hc         1 0YN       0.057033
     22 H4           6.0600    -0.0830    -0.9940 hc         1 0YN       0.139700
     23 H5           6.0520    -0.8390     0.6050 hc         1 0YN       0.139700
     24 H6           5.1520     2.7650    -1.1250 h4         1 0YN       0.202000
     25 H7           9.0210    -0.9970    -2.6410 hc         1 0YN       0.046033
     26 H8           9.5060    -0.5030    -1.0130 hc         1 0YN       0.046033
     27 H9           8.0370    -1.4610    -1.2460 hc         1 0YN       0.046033
     28 H10          9.8560     0.8350    -3.6770 hc         1 0YN       0.066200
     29 H11          8.9910     2.0460    -4.6330 hc         1 0YN       0.066200
     30 H12         10.4140     3.6410    -3.9330 h1         1 0YN       0.021700
     31 H13          9.9910     3.3000    -2.2500 h1         1 0YN       0.021700
     32 H14         12.2580     2.9640    -2.9640 ho         1 0YN       0.405000
     33 H15          4.6790    -0.8000    -2.6780 hn         1 0YN       0.437800
     34 H16          4.0430     0.7740    -3.0290 hn         1 0YN       0.437800
     35 H17          3.9820     0.0000     2.1520 h4         1 0YN       0.033100
@<TRIPOS>BOND
     1    10     9 1
     2     9     8 1
     3     8     5 1
     4     5     6 2
     5     5     4 1
     6     7     6 1
     7     6    18 1
     8     4     3 1
     9    18     3 2
    10    18     2 1
    11     2    16 1
    12    16    17 ar
    13    16    14 ar
    14    17    11 ar
    15    15    14 1
    16    14    13 ar
    17    11    12 ar
    18    13    12 ar
    19    12     1 1
    20     1    19 1
    21     1    20 1
    22     1    21 1
    23     2    22 1
    24     2    23 1
    25     3    24 1
    26     7    25 1
    27     7    26 1
    28     7    27 1
    29     8    28 1
    30     8    29 1
    31     9    30 1
    32     9    31 1
    33    10    32 1
    34    15    33 1
    35    15    34 1
    36    17    35 1
@<TRIPOS>SUBSTRUCTURE
     1 0YN         1 TEMP              0 ****  ****    0 ROOT
