@<TRIPOS>MOLECULE
0YN
   35    36     1     0     0
SMALL
bcc


@<TRIPOS>ATOM
      1 C2A          0.2170     0.0800    -0.7880 c3         1 0YN      -0.135400
      2 C35          5.7110     0.1150     0.8250 c3         1 0YN       0.045200
      3 C2           5.6660    -2.0410     2.1650 cc         1 0YN      -0.167100
      4 S1           6.5710    -3.4090     2.4280 ss         1 0YN       0.037200
      5 C5           7.7770    -2.9640     1.3450 cc         1 0YN      -0.118400
      6 C4           7.4950    -1.7420     0.7540 cd         1 0YN      -0.107300
      7 C4A          8.3420    -1.0580    -0.2350 c3         1 0YN      -0.038800
      8 C5A          8.9440    -3.8220     1.0920 c3         1 0YN      -0.010100
      9 C5B         10.1950    -3.2810     1.7760 c3         1 0YN       0.134400
     10 O5G         11.2590    -4.1500     1.4190 oh         1 0YN      -0.603800
     11 N1'          2.0060     0.8010     0.7380 nb         1 0YN      -0.737000
     12 C2'          1.6700     0.0700    -0.3750 ca         1 0YN       0.680300
     13 N3'          2.5300    -0.6630    -1.1330 nb         1 0YN      -0.765000
     14 C4'          3.8560    -0.6580    -0.7640 ca         1 0YN       0.681200
     15 N4'          4.7820    -1.3120    -1.5700 nv         1 0YN      -0.933500
     16 C5'          4.2920     0.0690     0.3940 ca         1 0YN      -0.376900
     17 C6'          3.3010     0.7800     1.0930 ca         1 0YN       0.457200
     18 C3           6.2520    -1.2000     1.2400 cd         1 0YN      -0.120300
     19 H1          -0.0810     1.1240    -1.0550 hc         1 0YN       0.061367
     20 H2          -0.4170    -0.2690     0.0640 hc         1 0YN       0.061367
     21 H3           0.0380    -0.5830    -1.6680 hc         1 0YN       0.061367
     22 H4           6.3350     0.5350    -0.0140 hc         1 0YN       0.060700
     23 H5           5.8140     0.8270     1.6930 hc         1 0YN       0.060700
     24 H6           4.7210    -1.8470     2.6710 h4         1 0YN       0.178000
     25 H7           8.7220    -0.0920     0.1840 hc         1 0YN       0.048033
     26 H8           9.2210    -1.6880    -0.5180 hc         1 0YN       0.048033
     27 H9           7.7600    -0.8290    -1.1640 hc         1 0YN       0.048033
     28 H10          9.1400    -3.8970    -0.0130 hc         1 0YN       0.065700
     29 H11          8.7540    -4.8670     1.4610 hc         1 0YN       0.065700
     30 H12         10.0650    -3.2710     2.8910 h1         1 0YN       0.027700
     31 H13         10.4140    -2.2380     1.4230 h1         1 0YN       0.027700
     32 H14         12.0480    -3.8130     1.8600 ho         1 0YN       0.402000
     33 H15          5.6150    -1.6030    -1.1070 hn         1 0YN       0.421300
     34 H16          4.4260    -1.9440    -2.2510 hn         1 0YN       0.421300
     35 H17          3.5630     1.3690     1.9920 h4         1 0YN       0.022100
@<TRIPOS>BOND
     1     1    12 1   
     2     1    19 1   
     3     1    20 1   
     4     1    21 1   
     5     2    16 1   
     6     2    18 1   
     7     2    22 1   
     8     2    23 1   
     9     3     4 1   
    10     3    18 2   
    11     3    24 1   
    12     4     5 1   
    13     5     6 2   
    14     5     8 1   
    15     6     7 1   
    16     6    18 1   
    17     7    25 1   
    18     7    26 1   
    19     7    27 1   
    20     8     9 1   
    21     8    28 1   
    22     8    29 1   
    23     9    10 1   
    24     9    30 1   
    25     9    31 1   
    26    10    32 1   
    27    11    12 ar  
    28    11    17 ar  
    29    12    13 ar  
    30    13    14 ar  
    31    14    15 1   
    32    14    16 ar  
    33    15    33 1   
    34    15    34 1   
    35    16    17 ar  
    36    17    35 1   
@<TRIPOS>SUBSTRUCTURE
     1 0YN         1 TEMP              0 ****  ****    0 ROOT
