@<TRIPOS>MOLECULE
0YN
   35    37     1     0     0
SMALL
bcc


@<TRIPOS>ATOM
      1 C2A          0.0000     0.0000     0.0000 c3         1 0YN      -0.054000
      2 C35          5.6930     0.0010     0.0220 c3         1 0YN      -0.221000
      3 C2           6.0440     2.2560    -1.4680 c2         1 0YN      -0.462000
      4 S1           7.0760     2.8060    -2.4930 ss         1 0YN       0.590000
      5 C5           8.1820     1.7260    -2.6710 c2         1 0YN      -0.401000
      6 C4           7.8480     0.6010    -1.8160 c2         1 0YN      -0.167000
      7 C4A          8.6620    -0.6830    -1.6680 c3         1 0YN      -0.022000
      8 C5A          9.3560     1.7960    -3.6450 c3         1 0YN       0.001000
      9 C5B         10.3410     2.8670    -3.1790 c3         1 0YN       0.069000
     10 O5G         11.6000     2.2880    -2.9800 oh         1 0YN      -0.318000
     11 N1'          2.1470     0.0000     1.1520 n2         1 0YN      -0.107000
     12 C2'          1.5070     0.0000     0.0000 c2         1 0YN      -0.025000
     13 N3'          2.1480     0.0000    -1.1510 n2         1 0YN      -0.114000
     14 C4'          3.4770     0.0000    -1.1880 c2         1 0YN      -0.016000
     15 N4'          4.1470     0.0010    -2.4010 nv         1 0YN      -0.031000
     16 C5'          4.1860    -0.0000     0.0150 c2         1 0YN      -0.153000
     17 C6'          3.4720     0.0000     1.1970 c2         1 0YN      -0.011000
     18 C3           6.4880     0.9380    -1.0510 c3         1 0YN      -0.013000
     19 H1          -0.3610    -0.8760    -0.5260 hc         1 0YN       0.056333
     20 H2          -0.3610     0.8930    -0.4960 hc         1 0YN       0.056333
     21 H3          -0.3610    -0.0170     1.0210 hc         1 0YN       0.056333
     22 H4           6.0600    -0.0830    -0.9940 DU         1 0YN       0.146000
     23 H5           6.0520    -0.8390     0.6050 hc         1 0YN       0.136000
     24 H6           5.1520     2.7650    -1.1250 h4         1 0YN       0.186000
     25 H7           9.0210    -0.9970    -2.6410 hc         1 0YN       0.048667
     26 H8           9.5060    -0.5030    -1.0130 hc         1 0YN       0.048667
     27 H9           8.0370    -1.4610    -1.2460 hc         1 0YN       0.048667
     28 H10          9.8560     0.8350    -3.6770 hc         1 0YN       0.072000
     29 H11          8.9910     2.0460    -4.6330 hc         1 0YN       0.072000
     30 H12         10.4140     3.6410    -3.9330 h1         1 0YN       0.030500
     31 H13          9.9910     3.3000    -2.2500 h1         1 0YN       0.030500
     32 H14         12.2580     2.9640    -2.9640 ho         1 0YN       0.191000
     33 H15          4.6790    -0.8000    -2.6780 hn         1 0YN       0.076000
     34 H16          4.0430     0.7740    -3.0290 hn         1 0YN       0.076000
     35 H17          3.9820     0.0000     2.1520 h4         1 0YN       0.127000
@<TRIPOS>BOND
     1     1    12 1   
     2     1    19 1   
     3     1    20 1   
     4     1    21 1   
     5     2    16 1   
     6     2    18 1   
     7     2    22 1   
     8     2    23 1   
     9     3     4 1   
    10     3    18 1   
    11     3    24 1   
    12     4     5 1   
    13     5     6 1   
    14     5     8 1   
    15     6     7 1   
    16     6    18 1   
    17     7    25 1   
    18     7    26 1   
    19     7    27 1   
    20     8     9 1   
    21     8    28 1   
    22     8    29 1   
    23     9    10 1   
    24     9    30 1   
    25     9    31 1   
    26    10    32 1   
    27    11    12 1   
    28    11    17 1   
    29    12    13 1   
    30    13    14 1   
    31    14    15 1   
    32    14    16 1   
    33    15    33 1   
    34    15    34 1   
    35    16    17 1   
    36    17    35 1   
    37    18    22 1   
@<TRIPOS>SUBSTRUCTURE
     1 0YN         1 TEMP              0 ****  ****    0 ROOT
