@<TRIPOS>MOLECULE
molecule
   45    49     1     0     0
SMALL
bcc


@<TRIPOS>ATOM
      1 C1           0.0000     0.0000     0.0000 cp         1 0YO       0.720500
      2 C2          -0.0960     0.0060     2.3050 ca         1 0YO       0.383200
      3 C3           1.2910     0.0000     2.3580 ca         1 0YO      -0.121500
      4 C7          -2.1080     0.0060    -1.3230 ca         1 0YO      -0.034000
      5 C8          -2.7420     0.0070    -2.5780 ca         1 0YO      -0.169300
      6 C9          -1.9490     0.0010    -3.7520 ca         1 0YO       0.428600
      7 C10         -2.5860     0.0010    -5.0060 ca         1 0YO      -0.168300
      8 C11         -3.9450     0.0070    -5.0730 ca         1 0YO      -0.114000
      9 C12         -4.7230     0.0130    -3.9170 ca         1 0YO      -0.132000
     10 C13         -4.1430     0.0130    -2.6860 ca         1 0YO      -0.103000
     11 C14          3.4800     0.0010     1.1440 cc         1 0YO      -0.218800
     12 C15          4.2760    -0.6350     0.2360 cd         1 0YO      -0.062000
     13 C16          5.5640     0.4230     1.7470 cc         1 0YO      -0.084600
     14 C19          7.9270    -0.1600     2.1630 c3         1 0YO       0.121000
     15 C20          6.8360     0.8850     2.4120 c3         1 0YO      -0.029100
     16 C21          1.1370     0.0060     4.7300 c3         1 0YO       0.123700
     17 C17          5.6000    -0.3730     0.6060 cd         1 0YO      -0.241600
     18 C18          6.8860    -0.7860     0.0160 c          1 0YO       0.752100
     19 O1           6.9500    -1.2780    -1.0930 o          1 0YO      -0.633500
     20 N5           7.9920    -0.5890     0.7720 ns         1 0YO      -0.597900
     21 N4           4.2870     0.6460     2.0580 na         1 0YO      -0.103100
     22 C4           2.0040     0.0000     1.1460 ca         1 0YO       0.540800
     23 N2           1.3250     0.0000     0.0000 nb         1 0YO      -0.691000
     24 N1          -0.7000     0.0060     1.1270 nb         1 0YO      -0.710000
     25 C5          -0.7210     0.0010    -1.2950 cp         1 0YO      -0.270800
     26 N3          -0.6150    -0.0040    -3.6610 nb         1 0YO      -0.686000
     27 C6          -0.0050    -0.0050    -2.5030 ca         1 0YO       0.467200
     28 O2           1.9420    -0.0000     3.5490 os         1 0YO      -0.328900
     29 H1          -0.6790     0.0090     3.2190 h4         1 0YO       0.034100
     30 H2          -2.6690    -0.2520    -0.4330 ha         1 0YO       0.160000
     31 H3          -1.9960    -0.0030    -5.9140 ha         1 0YO       0.151000
     32 H4          -4.4300     0.0070    -6.0420 ha         1 0YO       0.133000
     33 H5          -5.8040     0.0170    -4.0000 ha         1 0YO       0.131000
     34 H6          -4.7580     0.0180    -1.7940 ha         1 0YO       0.134000
     35 H7           3.9460    -1.2290    -0.6080 ha         1 0YO       0.178000
     36 H8           8.8780     0.2980     2.4070 h1         1 0YO       0.050200
     37 H9           7.1410     1.8360     1.9910 hc         1 0YO       0.060700
     38 H10          6.6710     0.9890     3.4780 hc         1 0YO       0.060700
     39 H11          0.5160     0.8940     4.7390 h1         1 0YO       0.046700
     40 H12          1.7770     0.0040     5.6040 h1         1 0YO       0.046700
     41 H13          0.5070    -0.8750     4.7430 h1         1 0YO       0.046700
     42 H14          3.9650     1.1900     2.8330 hn         1 0YO       0.305700
     43 H15          1.0780    -0.0090    -2.4750 h4         1 0YO       0.049100
     44 H16          7.6870    -1.0300     2.7610 h1         1 0YO       0.050200
     45 H17          8.8900    -0.7440     0.3580 hn         1 0YO       0.324500
@<TRIPOS>BOND
     1    14    20 1   
     2    14    15 1   
     3    20    18 1   
     4    15    13 1   
     5    18    19 2   
     6    18    17 1   
     7    13    17 2   
     8    13    21 1   
     9    17    12 1   
    10    21    11 1   
    11    12    11 2   
    12    11    22 1   
    13    10     9 ar  
    14    10     5 ar  
    15    22    23 ar  
    16    22     3 ar  
    17    23     1 ar  
    18     9     8 ar  
    19     4     5 ar  
    20     4    25 ar  
    21     5     6 ar  
    22    28     3 1   
    23    28    16 1   
    24     3     2 ar  
    25     1    25 1   
    26     1    24 ar  
    27     8     7 ar  
    28    25    27 ar  
    29     6     7 ar  
    30     6    26 ar  
    31     2    24 ar  
    32    27    26 ar  
    33     2    29 1   
    34     4    30 1   
    35     7    31 1   
    36     8    32 1   
    37     9    33 1   
    38    10    34 1   
    39    12    35 1   
    40    14    36 1   
    41    15    37 1   
    42    15    38 1   
    43    16    39 1   
    44    16    40 1   
    45    16    41 1   
    46    21    42 1   
    47    27    43 1   
    48    14    44 1   
    49    20    45 1   
@<TRIPOS>SUBSTRUCTURE
     1 0YO         1 TEMP              0 ****  ****    0 ROOT
