@<TRIPOS>MOLECULE
0YO
   45    49     1     0     0
SMALL
bcc


@<TRIPOS>ATOM
      1 C1           0.0000     0.0000     0.0000 cp         1 0YO       0.635500
      2 C2          -0.0960     0.0060     2.3050 ca         1 0YO       0.348200
      3 C3           1.2910     0.0000     2.3580 ca         1 0YO      -0.108500
      4 C7          -2.1080     0.0060    -1.3230 ca         1 0YO      -0.016000
      5 C8          -2.7420     0.0070    -2.5780 ca         1 0YO      -0.163300
      6 C9          -1.9490     0.0010    -3.7520 ca         1 0YO       0.383600
      7 C10         -2.5860     0.0010    -5.0060 ca         1 0YO      -0.143300
      8 C11         -3.9450     0.0070    -5.0730 ca         1 0YO      -0.090000
      9 C12         -4.7230     0.0130    -3.9170 ca         1 0YO      -0.104000
     10 C13         -4.1430     0.0130    -2.6860 ca         1 0YO      -0.076000
     11 C14          3.4800     0.0010     1.1440 cc         1 0YO      -0.443800
     12 C15          4.2760    -0.6350     0.2360 cd         1 0YO      -0.016000
     13 C16          5.5640     0.4230     1.7470 cc         1 0YO      -0.324600
     14 C19          7.9270    -0.1600     2.1630 c3         1 0YO       0.063000
     15 C20          6.8360     0.8850     2.4120 c3         1 0YO       0.069900
     16 C21          1.1370     0.0060     4.7300 c3         1 0YO       0.244700
     17 C17          5.6000    -0.3730     0.6060 cd         1 0YO      -0.248600
     18 C18          6.8860    -0.7860     0.0160 c          1 0YO       0.688100
     19 O1           6.9500    -1.2780    -1.0930 o          1 0YO      -0.676500
     20 N5           7.9920    -0.5890     0.7720 ns         1 0YO      -0.216900
     21 N4           4.2870     0.6460     2.0580 na         1 0YO       0.501900
     22 C4           2.0040     0.0000     1.1460 ca         1 0YO       0.501800
     23 N2           1.3250     0.0000     0.0000 nb         1 0YO      -0.566000
     24 N1          -0.7000     0.0060     1.1270 nb         1 0YO      -0.591000
     25 C5          -0.7210     0.0010    -1.2950 cp         1 0YO      -0.281800
     26 N3          -0.6150    -0.0040    -3.6610 nb         1 0YO      -0.576000
     27 C6          -0.0050    -0.0050    -2.5030 ca         1 0YO       0.441200
     28 O2           1.9420    -0.0000     3.5490 os         1 0YO      -0.309900
     29 H1          -0.6790     0.0090     3.2190 h4         1 0YO      -0.000900
     30 H2          -2.6690    -0.2520    -0.4330 ha         1 0YO       0.128000
     31 H3          -1.9960    -0.0030    -5.9140 ha         1 0YO       0.119000
     32 H4          -4.4300     0.0070    -6.0420 ha         1 0YO       0.102000
     33 H5          -5.8040     0.0170    -4.0000 ha         1 0YO       0.103000
     34 H6          -4.7580     0.0180    -1.7940 ha         1 0YO       0.107000
     35 H7           3.9460    -1.2290    -0.6080 ha         1 0YO       0.145000
     36 H8           8.8780     0.2980     2.4070 h1         1 0YO       0.016700
     37 H9           7.1410     1.8360     1.9910 hc         1 0YO       0.020700
     38 H10          6.6710     0.9890     3.4780 hc         1 0YO       0.020700
     39 H11          0.5160     0.8940     4.7390 h1         1 0YO       0.002367
     40 H12          1.7770     0.0040     5.6040 h1         1 0YO       0.002367
     41 H13          0.5070    -0.8750     4.7430 h1         1 0YO       0.002367
     42 H14          3.9650     1.1900     2.8330 hn         1 0YO       0.109700
     43 H15          1.0780    -0.0090    -2.4750 h4         1 0YO       0.001100
     44 H16          7.6870    -1.0300     2.7610 h1         1 0YO       0.016700
     45 H17          8.8900    -0.7440     0.3580 hn         1 0YO       0.180500
@<TRIPOS>BOND
     1     1    23 ar  
     2     1    24 ar  
     3     1    25 1   
     4     2     3 ar  
     5     2    24 ar  
     6     2    29 1   
     7     3    22 ar  
     8     3    28 1   
     9     4     5 ar  
    10     4    25 ar  
    11     4    30 1   
    12     5     6 ar  
    13     5    10 ar  
    14     6     7 ar  
    15     6    26 ar  
    16     7     8 ar  
    17     7    31 1   
    18     8     9 ar  
    19     8    32 1   
    20     9    10 ar  
    21     9    33 1   
    22    10    34 1   
    23    11    12 2   
    24    11    21 1   
    25    11    22 1   
    26    12    17 1   
    27    12    35 1   
    28    13    15 1   
    29    13    17 2   
    30    13    21 1   
    31    14    15 1   
    32    14    20 1   
    33    14    36 1   
    34    14    44 1   
    35    15    37 1   
    36    15    38 1   
    37    16    28 1   
    38    16    39 1   
    39    16    40 1   
    40    16    41 1   
    41    17    18 1   
    42    18    19 2   
    43    18    20 1   
    44    20    45 1   
    45    21    42 1   
    46    22    23 ar  
    47    25    27 ar  
    48    26    27 ar  
    49    27    43 1   
@<TRIPOS>SUBSTRUCTURE
     1 0YO         1 TEMP              0 ****  ****    0 ROOT
