@<TRIPOS>MOLECULE
0YO
   45    49     1     0     0
SMALL
bcc


@<TRIPOS>ATOM
      1 C1          -0.0170     0.1580    -0.0660 cp         1 0YO       0.682500
      2 C2          -0.2030    -0.0210     2.2290 ca         1 0YO       0.366200
      3 C3           1.2050    -0.0180     2.3570 ca         1 0YO      -0.097500
      4 C7          -0.1610    -0.3740    -2.5030 ca         1 0YO      -0.043000
      5 C8          -0.8430    -0.2520    -3.7480 ca         1 0YO      -0.158300
      6 C9          -2.0450     0.5190    -3.7910 ca         1 0YO       0.402600
      7 C10         -2.7300     0.6420    -5.0420 ca         1 0YO      -0.167300
      8 C11         -2.2330     0.0300    -6.1660 ca         1 0YO      -0.119000
      9 C12         -1.0420    -0.7320    -6.1130 ca         1 0YO      -0.130000
     10 C13         -0.3610    -0.8710    -4.9290 ca         1 0YO      -0.107000
     11 C14          3.4320     0.1050     1.1910 cc         1 0YO      -0.214800
     12 C15          4.3030    -0.1620     2.2700 cd         1 0YO      -0.054000
     13 C16          5.5410     0.3390     0.4030 cc         1 0YO      -0.056600
     14 C19          7.9680    -0.0550     0.1930 c3         1 0YO       0.108000
     15 C20          6.7290     0.6070    -0.4330 c3         1 0YO      -0.029100
     16 C21          1.0620    -0.1270     4.7250 c3         1 0YO       0.106700
     17 C17          5.6300    -0.0160     1.7740 cd         1 0YO      -0.231600
     18 C18          6.9220    -0.1590     2.4400 c          1 0YO       0.743100
     19 O1           7.0720    -0.3670     3.6600 o          1 0YO      -0.640500
     20 N5           8.0440     0.0010     1.6260 ns         1 0YO      -0.578900
     21 N4           4.2120     0.4100     0.0550 na         1 0YO      -0.130100
     22 C4           1.9760     0.0860     1.1570 ca         1 0YO       0.517800
     23 N2           1.3500     0.1720    -0.0450 nb         1 0YO      -0.705000
     24 N1          -0.8220     0.0650     1.0420 nb         1 0YO      -0.664000
     25 C5          -0.6780     0.2470    -1.3880 cp         1 0YO      -0.252800
     26 N3          -2.5530     1.1370    -2.6620 nb         1 0YO      -0.662000
     27 C6          -1.8960     0.9990    -1.5270 ca         1 0YO       0.447200
     28 O2           1.8730    -0.1090     3.5510 os         1 0YO      -0.302900
     29 H1          -0.8650    -0.0970     3.1100 h4         1 0YO       0.036100
     30 H2           0.7650    -0.9680    -2.4600 ha         1 0YO       0.150000
     31 H3          -3.6580     1.2340    -5.0860 ha         1 0YO       0.152000
     32 H4          -2.7610     0.1250    -7.1270 ha         1 0YO       0.136000
     33 H5          -0.6720    -1.2110    -7.0320 ha         1 0YO       0.135000
     34 H6           0.5660    -1.4620    -4.8750 ha         1 0YO       0.134000
     35 H7           4.0260    -0.4290     3.2890 ha         1 0YO       0.187000
     36 H8           8.8840     0.4560    -0.2230 h1         1 0YO       0.039200
     37 H9           6.8850     1.7180    -0.5040 hc         1 0YO       0.065200
     38 H10          6.6040     0.2110    -1.4750 hc         1 0YO       0.065200
     39 H11          1.8170    -0.1640     5.5520 h1         1 0YO       0.052700
     40 H12          0.4450     0.8010     4.7930 h1         1 0YO       0.052700
     41 H13          0.4150    -1.0370     4.7400 h1         1 0YO       0.052700
     42 H14          3.8490     0.6330    -0.8370 hn         1 0YO       0.314700
     43 H15         -2.3360     1.5040    -0.6450 h4         1 0YO       0.039100
     44 H16          7.9940    -1.1330    -0.1500 h1         1 0YO       0.039200
     45 H17          8.9330    -0.1770     2.0340 hn         1 0YO       0.318500
@<TRIPOS>BOND
     1     1    23 ar  
     2     1    24 ar  
     3     1    25 1   
     4     2     3 ar  
     5     2    24 ar  
     6     2    29 1   
     7     3    22 ar  
     8     3    28 1   
     9     4     5 ar  
    10     4    25 ar  
    11     4    30 1   
    12     5     6 ar  
    13     5    10 ar  
    14     6     7 ar  
    15     6    26 ar  
    16     7     8 ar  
    17     7    31 1   
    18     8     9 ar  
    19     8    32 1   
    20     9    10 ar  
    21     9    33 1   
    22    10    34 1   
    23    11    12 2   
    24    11    21 1   
    25    11    22 1   
    26    12    17 1   
    27    12    35 1   
    28    13    15 1   
    29    13    17 2   
    30    13    21 1   
    31    14    15 1   
    32    14    20 1   
    33    14    36 1   
    34    14    44 1   
    35    15    37 1   
    36    15    38 1   
    37    16    28 1   
    38    16    39 1   
    39    16    40 1   
    40    16    41 1   
    41    17    18 1   
    42    18    19 2   
    43    18    20 1   
    44    20    45 1   
    45    21    42 1   
    46    22    23 ar  
    47    25    27 ar  
    48    26    27 ar  
    49    27    43 1   
@<TRIPOS>SUBSTRUCTURE
     1 0YO         1 TEMP              0 ****  ****    0 ROOT
