@<TRIPOS>MOLECULE
molecule
   53    55     1     0     0
SMALL
bcc


@<TRIPOS>ATOM
      1 C1           0.0000     0.0000     0.0000 c          1 0YP       0.663700
      2 N1           1.3480     0.0000     0.0000 ns         1 0YP      -0.468100
      3 O1          -0.6070     0.0000     1.0530 o          1 0YP      -0.554100
      4 C2           2.0480     0.1010     1.2080 ce         1 0YP       0.021400
      5 N2           0.9450     1.2820     3.0340 n          1 0YP      -0.466800
      6 O2           1.0500    -0.9380     3.0360 o          1 0YP      -0.595100
      7 C3           1.3190     0.1110     2.4800 c          1 0YP       0.704300
      8 C4           0.3100     1.3140     4.3590 c3         1 0YP       0.109000
      9 C5           1.0910     2.2810     5.2550 c3         1 0YP      -0.100400
     10 C6           1.1830     3.6460     4.5680 c3         1 0YP      -0.080400
     11 C7           1.9340     3.5020     3.2430 c3         1 0YP      -0.100400
     12 C8           1.1680     2.5500     2.3270 c3         1 0YP       0.109000
     13 C9           3.4010     0.1910     1.2010 cf         1 0YP      -0.041500
     14 C10          4.1300     0.3960     2.4610 ca         1 0YP      -0.090800
     15 C11          4.9630     1.5150     2.6220 ca         1 0YP       0.160100
     16 C12          5.6450     1.6970     3.8140 ca         1 0YP      -0.227000
     17 C13          5.5050     0.7810     4.8400 ca         1 0YP      -0.079000
     18 C14          4.6850    -0.3240     4.6870 ca         1 0YP      -0.167000
     19 C15          3.9930    -0.5190     3.5100 ca         1 0YP      -0.064000
     20 C16         -0.7390     0.0060    -1.2800 ca         1 0YP      -0.107600
     21 C17         -2.1360     0.0050    -1.2830 ca         1 0YP      -0.093000
     22 C18         -2.8200     0.0110    -2.4810 ca         1 0YP      -0.079000
     23 C19         -2.1250     0.0160    -3.6770 ca         1 0YP      -0.133200
     24 C20         -0.7410     0.0170    -3.6820 ca         1 0YP      -0.079000
     25 C21         -0.0450     0.0160    -2.4900 ca         1 0YP      -0.093000
     26 N01         -2.8660     0.0220    -4.9590 no         1 0YP       0.290200
     27 O01         -2.2570     0.0260    -6.0150 o          1 0YP      -0.198000
     28 C02          6.0480     3.4650     1.8050 c3         1 0YP       0.126700
     29 O02         -4.0830     0.0200    -4.9580 o          1 0YP      -0.198000
     30 O03          5.1000     2.4130     1.6140 os         1 0YP      -0.321900
     31 Br1          4.3510     0.0520    -0.4280 br         1 0YP      -0.075700
     32 H1           1.8480    -0.1050    -0.8610 hn         1 0YP       0.342500
     33 H3           0.3290     0.3220     4.7940 h1         1 0YP       0.058450
     34 H4          -0.7130     1.6560     4.2620 h1         1 0YP       0.058450
     35 H5           2.0880     1.8930     5.4210 hc         1 0YP       0.050950
     36 H6           0.5770     2.3890     6.2020 hc         1 0YP       0.050950
     37 H7           0.1850     4.0210     4.3770 hc         1 0YP       0.042200
     38 H8           1.7160     4.3360     5.2100 hc         1 0YP       0.042200
     39 H9           2.0140     4.4720     2.7670 hc         1 0YP       0.050950
     40 H10          2.9230     3.1040     3.4310 hc         1 0YP       0.050950
     41 H11          0.2140     2.9900     2.0640 h1         1 0YP       0.058450
     42 H12          1.7480     2.3660     1.4300 h1         1 0YP       0.058450
     43 H14          6.2890     2.5590     3.9420 ha         1 0YP       0.137000
     44 H15          6.0430     0.9280     5.7690 ha         1 0YP       0.131000
     45 H16          4.5810    -1.0350     5.4980 ha         1 0YP       0.138000
     46 H17          3.3530    -1.3850     3.3940 ha         1 0YP       0.165000
     47 H18         -2.6810     0.0010    -0.3460 ha         1 0YP       0.160500
     48 H19         -3.9030     0.0100    -2.4840 ha         1 0YP       0.172500
     49 H20         -0.2040     0.0230    -4.6220 ha         1 0YP       0.172500
     50 H21          1.0390     0.0170    -2.4950 ha         1 0YP       0.160500
     51 H01          7.0250     3.0390     1.9990 h1         1 0YP       0.043033
     52 H04          5.7450     4.0740     2.6480 h1         1 0YP       0.043033
     53 H05          6.0910     4.0780     0.9140 h1         1 0YP       0.043033
@<TRIPOS>BOND
     1    28    30 1
     2    10    11 1
     3    10     9 1
     4    11    12 1
     5    30    15 1
     6     9     8 1
     7    12     5 1
     8    16    15 ar
     9    16    17 ar
    10    31    13 1
    11    15    14 ar
    12     8     5 1
    13     5     7 1
    14    17    18 ar
    15    14    13 1
    16    14    19 ar
    17    13     4 2
    18     7     4 1
    19     7     6 2
    20     4     2 1
    21    18    19 ar
    22     3     1 2
    23     2     1 1
    24     1    20 1
    25    20    21 ar
    26    20    25 ar
    27    21    22 ar
    28    25    24 ar
    29    22    23 ar
    30    24    23 ar
    31    23    26 1
    32    26    29 1
    33    26    27 1
    34     2    32 1
    35     8    33 1
    36     8    34 1
    37     9    35 1
    38     9    36 1
    39    10    37 1
    40    10    38 1
    41    11    39 1
    42    11    40 1
    43    12    41 1
    44    12    42 1
    45    16    43 1
    46    17    44 1
    47    18    45 1
    48    19    46 1
    49    21    47 1
    50    22    48 1
    51    24    49 1
    52    25    50 1
    53    28    51 1
    54    28    52 1
    55    28    53 1
@<TRIPOS>SUBSTRUCTURE
     1 0YP         1 TEMP              0 ****  ****    0 ROOT
