@<TRIPOS>MOLECULE
0YP
   54    56     1     0     0
SMALL
bcc


@<TRIPOS>ATOM
      1 C1           0.2470     0.1050     0.4340 c          1 0YP       0.567700
      2 N1           1.6230     0.4980    -0.0830 ny         1 0YP      -0.546600
      3 O1           0.0850     0.0420     1.6390 o          1 0YP      -0.381100
      4 C2           2.7190     0.3700     0.8790 ce         1 0YP      -0.131200
      5 N2           2.9820     1.7720     2.9350 n          1 0YP      -0.411800
      6 O2           3.2450     2.6590     0.8180 o          1 0YP      -0.619100
      7 C3           3.0130     1.6880     1.5770 c          1 0YP       0.665300
      8 C4           3.3430     3.0180     3.5940 c3         1 0YP       0.080000
      9 C5           2.3040     3.5050     4.6030 c3         1 0YP      -0.090400
     10 C6           1.7610     2.3980     5.4860 c3         1 0YP      -0.083400
     11 C7           2.4690     1.0800     5.2610 c3         1 0YP      -0.090400
     12 C8           2.4920     0.7010     3.7810 c3         1 0YP       0.080000
     13 C9           3.5020    -0.7340     0.9590 cf         1 0YP       0.162500
     14 C10          4.7270    -0.7700     1.7400 ca         1 0YP      -0.173800
     15 C11          4.9490    -1.7230     2.7620 ca         1 0YP       0.181100
     16 C12          6.1880    -1.7810     3.4190 ca         1 0YP      -0.204000
     17 C13          7.1960    -0.8880     3.0710 ca         1 0YP      -0.043000
     18 C14          6.9780     0.0770     2.0830 ca         1 0YP      -0.157000
     19 C15          5.7550     0.1390     1.4290 ca         1 0YP      -0.057000
     20 C16         -0.7520    -0.1050    -0.6290 ca         1 0YP      -0.170600
     21 C17         -1.9940     0.5280    -0.4900 ca         1 0YP      -0.086000
     22 C18         -2.9830     0.3360    -1.4540 ca         1 0YP      -0.064000
     23 C19         -2.7190    -0.5000    -2.5480 ca         1 0YP      -0.122200
     24 C20         -1.4820    -1.1530    -2.6810 ca         1 0YP      -0.064000
     25 C21         -0.4980    -0.9510    -1.7170 ca         1 0YP      -0.086000
     26 N01         -3.7750    -0.7100    -3.5900 no         1 0YP       0.311200
     27 O01         -4.8230    -0.1470    -3.4540 o          1 0YP      -0.166500
     28 C02          4.1310    -3.6100     3.9750 c3         1 0YP       0.110700
     29 O02         -3.5220    -1.4300    -4.5140 o          1 0YP      -0.166500
     30 O03          3.8760    -2.5220     3.0850 os         1 0YP      -0.337900
     31 Br1          3.1120    -2.2680    -0.0720 br         1 0YP      -0.024700
     32 H1           1.5850     1.4960    -0.3660 hn         1 0YP       0.476300
     33 H3           4.3220     2.8400     4.1280 h1         1 0YP       0.066450
     34 H4           3.5080     3.8180     2.8160 h1         1 0YP       0.066450
     35 H5           1.4580     4.0010     4.0600 hc         1 0YP       0.061700
     36 H6           2.7990     4.2930     5.2290 hc         1 0YP       0.061700
     37 H7           0.6650     2.2640     5.2860 hc         1 0YP       0.055200
     38 H8           1.8620     2.6880     6.5650 hc         1 0YP       0.055200
     39 H9           1.9410     0.2610     5.8150 hc         1 0YP       0.061700
     40 H10          3.5170     1.1360     5.6560 hc         1 0YP       0.061700
     41 H11          3.1440    -0.2100     3.6430 h1         1 0YP       0.066450
     42 H12          1.4440     0.4320     3.4560 h1         1 0YP       0.066450
     43 H14          6.3680    -2.5290     4.2050 ha         1 0YP       0.160000
     44 H15          8.1710    -0.9400     3.5820 ha         1 0YP       0.158000
     45 H16          7.7780     0.7870     1.8210 ha         1 0YP       0.160000
     46 H17          5.5830     0.9020     0.6520 ha         1 0YP       0.151000
     47 H18         -2.2000     1.1720     0.3830 ha         1 0YP       0.164000
     48 H19         -3.9660     0.8360    -1.3530 ha         1 0YP       0.201000
     49 H20         -1.2940    -1.8230    -3.5420 ha         1 0YP       0.201000
     50 H21          0.4550    -1.4950    -1.8120 ha         1 0YP       0.164000
     51 H01          3.1540    -4.1550     3.9950 h1         1 0YP       0.060700
     52 H04          4.9440    -4.2640     3.5780 h1         1 0YP       0.060700
     53 H05          4.3890    -3.2240     4.9910 h1         1 0YP       0.060700
     54 H121         1.8300    -0.0630    -0.9220 hn         1 0YP       0.476300
@<TRIPOS>BOND
     1     1     2 1   
     2     1     3 2   
     3     1    20 1   
     4     2     4 1   
     5     2    32 1   
     6     2    54 1   
     7     4     7 1   
     8     4    13 2   
     9     5     7 1   
    10     5     8 1   
    11     5    12 1   
    12     6     7 2   
    13     8     9 1   
    14     8    33 1   
    15     8    34 1   
    16     9    10 1   
    17     9    35 1   
    18     9    36 1   
    19    10    11 1   
    20    10    37 1   
    21    10    38 1   
    22    11    12 1   
    23    11    39 1   
    24    11    40 1   
    25    12    41 1   
    26    12    42 1   
    27    13    14 1   
    28    13    31 1   
    29    14    15 ar  
    30    14    19 ar  
    31    15    16 ar  
    32    15    30 1   
    33    16    17 ar  
    34    16    43 1   
    35    17    18 ar  
    36    17    44 1   
    37    18    19 ar  
    38    18    45 1   
    39    19    46 1   
    40    20    21 ar  
    41    20    25 ar  
    42    21    22 ar  
    43    21    47 1   
    44    22    23 ar  
    45    22    48 1   
    46    23    24 ar  
    47    23    26 1   
    48    24    25 ar  
    49    24    49 1   
    50    25    50 1   
    51    26    27 1   
    52    26    29 1   
    53    28    30 1   
    54    28    51 1   
    55    28    52 1   
    56    28    53 1   
@<TRIPOS>SUBSTRUCTURE
     1 0YP         1 TEMP              0 ****  ****    0 ROOT
