@<TRIPOS>MOLECULE
0YP
   53    55     1     0     0
SMALL
bcc


@<TRIPOS>ATOM
      1 C1           0.0000     0.0000     0.0000 c          1 0YP       0.568700
      2 N1           1.3480     0.0000     0.0000 ns         1 0YP      -0.022100
      3 O1          -0.6070     0.0000     1.0530 o          1 0YP      -0.601100
      4 C2           2.0480     0.1010     1.2080 ce         1 0YP      -0.147600
      5 N2           0.9450     1.2820     3.0340 n          1 0YP      -0.120800
      6 O2           1.0500    -0.9380     3.0360 o          1 0YP      -0.638100
      7 C3           1.3190     0.1110     2.4800 c          1 0YP       0.640300
      8 C4           0.3100     1.3140     4.3590 c3         1 0YP       0.046500
      9 C5           1.0910     2.2810     5.2550 c3         1 0YP      -0.047400
     10 C6           1.1830     3.6460     4.5680 c3         1 0YP      -0.025400
     11 C7           1.9340     3.5020     3.2430 c3         1 0YP      -0.047400
     12 C8           1.1680     2.5500     2.3270 c3         1 0YP       0.046500
     13 C9           3.4010     0.1910     1.2010 cf         1 0YP       0.023500
     14 C10          4.1300     0.3960     2.4610 ca         1 0YP      -0.103800
     15 C11          4.9630     1.5150     2.6220 ca         1 0YP       0.172100
     16 C12          5.6450     1.6970     3.8140 ca         1 0YP      -0.220000
     17 C13          5.5050     0.7810     4.8400 ca         1 0YP      -0.043000
     18 C14          4.6850    -0.3240     4.6870 ca         1 0YP      -0.145000
     19 C15          3.9930    -0.5190     3.5100 ca         1 0YP      -0.039000
     20 C16         -0.7390     0.0060    -1.2800 ca         1 0YP      -0.101600
     21 C17         -2.1360     0.0050    -1.2830 ca         1 0YP      -0.079000
     22 C18         -2.8200     0.0110    -2.4810 ca         1 0YP      -0.018500
     23 C19         -2.1250     0.0160    -3.6770 ca         1 0YP      -0.429200
     24 C20         -0.7410     0.0170    -3.6820 ca         1 0YP      -0.018500
     25 C21         -0.0450     0.0160    -2.4900 ca         1 0YP      -0.079000
     26 N01         -2.8660     0.0220    -4.9590 no         1 0YP       1.042200
     27 O01         -2.2570     0.0260    -6.0150 o          1 0YP      -0.444500
     28 C02          6.0480     3.4650     1.8050 c3         1 0YP       0.239700
     29 O02         -4.0830     0.0200    -4.9580 o          1 0YP      -0.444500
     30 O03          5.1000     2.4130     1.6140 os         1 0YP      -0.300900
     31 Br1          4.3510     0.0520    -0.4280 br         1 0YP      -0.105700
     32 H1           1.8480    -0.1050    -0.8610 hn         1 0YP       0.187500
     33 H3          -0.7130     1.6560     4.2620 h1         1 0YP       0.031700
     34 H4           0.3290     0.3220     4.7940 h1         1 0YP       0.031700
     35 H5           0.5770     2.3890     6.2020 hc         1 0YP       0.023450
     36 H6           2.0880     1.8930     5.4210 hc         1 0YP       0.023450
     37 H7           0.1850     4.0210     4.3770 hc         1 0YP       0.015700
     38 H8           1.7160     4.3360     5.2100 hc         1 0YP       0.015700
     39 H9           2.0140     4.4720     2.7670 hc         1 0YP       0.023450
     40 H10          2.9230     3.1040     3.4310 hc         1 0YP       0.023450
     41 H11          1.7480     2.3660     1.4300 h1         1 0YP       0.031700
     42 H12          0.2140     2.9900     2.0640 h1         1 0YP       0.031700
     43 H14          6.2890     2.5590     3.9420 ha         1 0YP       0.123000
     44 H15          6.0430     0.9280     5.7690 ha         1 0YP       0.101000
     45 H16          4.5810    -1.0350     5.4980 ha         1 0YP       0.112000
     46 H17          3.3530    -1.3850     3.3940 ha         1 0YP       0.138000
     47 H18         -2.6810     0.0010    -0.3460 ha         1 0YP       0.128000
     48 H19         -3.9030     0.0100    -2.4840 ha         1 0YP       0.137000
     49 H20         -0.2040     0.0230    -4.6220 ha         1 0YP       0.137000
     50 H21          1.0390     0.0170    -2.4950 ha         1 0YP       0.128000
     51 H01          7.0250     3.0390     1.9990 h1         1 0YP      -0.000300
     52 H04          6.0910     4.0780     0.9140 h1         1 0YP      -0.000300
     53 H05          5.7450     4.0740     2.6480 h1         1 0YP      -0.000300
@<TRIPOS>BOND
     1     1     2 1   
     2     1     3 2   
     3     1    20 1   
     4     2     4 1   
     5     2    32 1   
     6     4     7 1   
     7     4    13 2   
     8     5     7 1   
     9     5     8 1   
    10     5    12 1   
    11     6     7 2   
    12     8     9 1   
    13     8    33 1   
    14     8    34 1   
    15     9    10 1   
    16     9    35 1   
    17     9    36 1   
    18    10    11 1   
    19    10    37 1   
    20    10    38 1   
    21    11    12 1   
    22    11    39 1   
    23    11    40 1   
    24    12    41 1   
    25    12    42 1   
    26    13    14 1   
    27    13    31 1   
    28    14    15 ar  
    29    14    19 ar  
    30    15    16 ar  
    31    15    30 1   
    32    16    17 ar  
    33    16    43 1   
    34    17    18 ar  
    35    17    44 1   
    36    18    19 ar  
    37    18    45 1   
    38    19    46 1   
    39    20    21 ar  
    40    20    25 ar  
    41    21    22 ar  
    42    21    47 1   
    43    22    23 ar  
    44    22    48 1   
    45    23    24 ar  
    46    23    26 1   
    47    24    25 ar  
    48    24    49 1   
    49    25    50 1   
    50    26    27 1   
    51    26    29 1   
    52    28    30 1   
    53    28    51 1   
    54    28    52 1   
    55    28    53 1   
@<TRIPOS>SUBSTRUCTURE
     1 0YP         1 TEMP              0 ****  ****    0 ROOT
