@<TRIPOS>MOLECULE
0YQ
   57    58     1     0     0
SMALL
bcc


@<TRIPOS>ATOM
      1 O33         -0.9400    -1.1230    -0.3670 o          1 0YQ      -0.754300
      2 C31         -0.1130    -0.4820     0.3460 c          1 0YQ       0.937600
      3 O32         -0.1570    -0.1650     1.5380 o          1 0YQ      -0.754300
      4 C30          1.2020    -0.0090    -0.4320 c3         1 0YQ      -0.086200
      5 N25          0.9500    -0.1150    -1.9050 nx         1 0YQ      -0.659400
      6 C26          2.1900    -0.2660    -2.7050 c3         1 0YQ       0.000800
      7 C27          1.9500    -0.8980    -4.0620 c          1 0YQ       0.656100
      8 O29          2.9780    -1.0340    -4.9260 oh         1 0YQ      -0.529100
      9 O28          0.8690    -1.3290    -4.4770 o          1 0YQ      -0.560000
     10 C23          0.0910     1.0190    -2.3620 c3         1 0YQ       0.041800
     11 C22         -0.9830     0.5900    -3.3770 c          1 0YQ       0.644100
     12 O24         -0.9000     1.0030    -4.5550 o          1 0YQ      -0.633100
     13 N21         -1.9530    -0.2730    -2.9460 ns         1 0YQ      -0.560900
     14 C20         -3.1300    -0.6070    -3.6970 c3         1 0YQ       0.072000
     15 C19         -2.9670    -0.7430    -5.2210 c3         1 0YQ       0.096800
     16 N17         -1.7580    -1.5050    -5.6340 ny         1 0YQ      -0.667800
     17 C16         -1.8240    -2.0570    -7.0320 c          1 0YQ       0.530100
     18 O18         -2.6750    -1.6190    -7.7890 o          1 0YQ      -0.413100
     19 C12         -0.7700    -3.1220    -7.3190 c3         1 0YQ       0.030100
     20 C11         -0.9250    -3.7490    -8.7270 c3         1 0YQ       0.111100
     21 O15          0.1770    -3.4380    -9.5310 oh         1 0YQ      -0.559800
     22 C10         -1.0820    -5.2680    -8.4620 c3         1 0YQ       0.083100
     23 O14          0.1470    -5.9090    -8.7260 oh         1 0YQ      -0.581800
     24 O13         -0.8830    -4.1390    -6.3380 os         1 0YQ      -0.421600
     25 C9          -1.3160    -5.3990    -6.9250 c3         1 0YQ       0.290500
     26 N5          -2.6750    -5.6950    -6.5410 n          1 0YQ      -0.412000
     27 C6          -3.7760    -5.1310    -7.1810 cc         1 0YQ       0.001600
     28 C1          -5.0470    -5.3720    -6.7840 cd         1 0YQ      -0.273200
     29 C4          -2.8810    -6.5470    -5.4050 c          1 0YQ       0.813500
     30 O8          -1.9040    -7.0430    -4.8120 o          1 0YQ      -0.611500
     31 N3          -4.1920    -6.7940    -4.9900 ns         1 0YQ      -0.580500
     32 C2          -5.3210    -6.2470    -5.6310 c          1 0YQ       0.704700
     33 O7          -6.4500    -6.5080    -5.1980 o          1 0YQ      -0.559500
     34 H2           2.0350    -0.7000    -0.1420 hx         1 0YQ       0.098700
     35 H3           1.4610     1.0430    -0.1530 hx         1 0YQ       0.098700
     36 H5           2.9050    -0.9320    -2.1320 hx         1 0YQ       0.132200
     37 H6           2.6790     0.7430    -2.8400 hx         1 0YQ       0.132200
     38 H8          -0.4280     1.4570    -1.4550 hx         1 0YQ       0.134700
     39 H9           0.7240     1.8190    -2.8400 hx         1 0YQ       0.134700
     40 H10         -1.9810    -0.5230    -1.9630 hn         1 0YQ       0.399500
     41 H11         -3.9270     0.1840    -3.5500 h1         1 0YQ       0.094200
     42 H12         -3.5240    -1.5790    -3.2740 h1         1 0YQ       0.094200
     43 H13         -2.8950     0.2810    -5.6950 hx         1 0YQ       0.121700
     44 H14         -3.8810    -1.2650    -5.6260 hx         1 0YQ       0.121700
     45 H15         -0.9350    -0.8710    -5.5800 hn         1 0YQ       0.487800
     46 H16          0.2520    -2.6550    -7.1950 h1         1 0YQ       0.134700
     47 H17         -1.8150    -3.3260    -9.2720 h1         1 0YQ       0.116700
     48 H18          0.9280    -3.9910    -9.2610 ho         1 0YQ       0.438000
     49 H19         -1.9170    -5.7030    -9.0690 h1         1 0YQ       0.095700
     50 H20          0.0640    -6.3720    -9.5720 ho         1 0YQ       0.442000
     51 H21         -0.6160    -6.1670    -6.4620 h2         1 0YQ       0.174700
     52 H22         -3.5460    -4.4780    -8.0450 h4         1 0YQ       0.153000
     53 H23         -5.9230    -4.9530    -7.3000 ha         1 0YQ       0.192000
     54 H24         -4.3130    -7.4210    -4.2200 hn         1 0YQ       0.368500
     55 H212         3.8080    -0.7000    -4.5450 ho         1 0YQ       0.460000
     56 H172        -1.5800    -2.2900    -4.9900 hn         1 0YQ       0.487800
     57 H251         0.3860    -0.9980    -1.9900 hn         1 0YQ       0.490800
@<TRIPOS>BOND
     1     1     2 1   
     2     2     3 1   
     3     2     4 1   
     4     4     5 1   
     5     4    34 1   
     6     4    35 1   
     7     5     6 1   
     8     5    10 1   
     9     5    57 1   
    10     6     7 1   
    11     6    36 1   
    12     6    37 1   
    13     7     8 1   
    14     7     9 2   
    15     8    55 1   
    16    10    11 1   
    17    10    38 1   
    18    10    39 1   
    19    11    12 2   
    20    11    13 1   
    21    13    14 1   
    22    13    40 1   
    23    14    15 1   
    24    14    41 1   
    25    14    42 1   
    26    15    16 1   
    27    15    43 1   
    28    15    44 1   
    29    16    17 1   
    30    16    45 1   
    31    16    56 1   
    32    17    18 2   
    33    17    19 1   
    34    19    20 1   
    35    19    24 1   
    36    19    46 1   
    37    20    21 1   
    38    20    22 1   
    39    20    47 1   
    40    21    48 1   
    41    22    23 1   
    42    22    25 1   
    43    22    49 1   
    44    23    50 1   
    45    24    25 1   
    46    25    26 1   
    47    25    51 1   
    48    26    27 1   
    49    26    29 1   
    50    27    28 2   
    51    27    52 1   
    52    28    32 1   
    53    28    53 1   
    54    29    30 2   
    55    29    31 1   
    56    31    32 1   
    57    31    54 1   
    58    32    33 2   
@<TRIPOS>SUBSTRUCTURE
     1 0YQ         1 TEMP              0 ****  ****    0 ROOT
