@<TRIPOS>MOLECULE
molecule
   54    55     1     0     0
SMALL
bcc


@<TRIPOS>ATOM
      1 O33          0.0000     0.0000     0.0000 o          1 0YQ      -0.876800
      2 C31          1.2080     0.0000     0.0000 c          1 0YQ       0.887100
      3 O32          1.8790     0.0000     1.1630 o          1 0YQ      -0.876800
      4 C30          1.9620    -0.0070    -1.3050 c3         1 0YQ       0.048300
      5 N25          1.0120    -0.1260    -2.4180 n3         1 0YQ      -0.674600
      6 C26          0.2400    -1.3720    -2.3200 c3         1 0YQ       0.048300
      7 C27          1.1610    -2.5500    -2.5090 c          1 0YQ       0.887100
      8 O29          2.3400    -2.3700    -2.7030 o          1 0YQ      -0.876800
      9 O28          0.6720    -3.7990    -2.4580 o          1 0YQ      -0.876800
     10 C23          0.1220     1.0410    -2.4780 c3         1 0YQ       0.078800
     11 C22          0.8650     2.2090    -3.0750 c          1 0YQ       0.653100
     12 O24          2.0370     2.0980    -3.3640 o          1 0YQ      -0.589100
     13 N21          0.2270     3.3770    -3.2860 ns         1 0YQ      -0.615900
     14 C20          0.9500     4.5120    -3.8660 c3         1 0YQ       0.100000
     15 C19          0.0010     5.7060    -3.9990 c3         1 0YQ       0.090000
     16 N17          0.7240     6.8400    -4.5790 ns         1 0YQ      -0.576900
     17 C16          0.0850     8.0090    -4.7890 c          1 0YQ       0.656100
     18 O18         -1.0880     8.1190    -4.5000 o          1 0YQ      -0.574100
     19 C12          0.8280     9.1760    -5.3860 c3         1 0YQ       0.064100
     20 C11          1.9380     9.6550    -4.4250 c3         1 0YQ       0.110100
     21 O15          3.2040     9.1170    -4.8130 oh         1 0YQ      -0.584800
     22 C10          1.9320    11.1930    -4.5810 c3         1 0YQ       0.072100
     23 O14          3.1940    11.6510    -5.0700 oh         1 0YQ      -0.586800
     24 O13         -0.0520    10.3120    -5.5290 os         1 0YQ      -0.356600
     25 C9           0.8200    11.4600    -5.6190 c3         1 0YQ       0.306500
     26 N5           0.0890    12.6830    -5.2780 n          1 0YQ      -0.362000
     27 C6           0.0950    13.7410    -6.1470 cc         1 0YQ       0.050600
     28 C1          -0.5790    14.8680    -5.8340 cd         1 0YQ      -0.336200
     29 C4          -0.5870    12.7540    -4.1180 c          1 0YQ       0.803500
     30 O8          -0.5840    11.8020    -3.3620 o          1 0YQ      -0.617500
     31 N3          -1.2680    13.8660    -3.7800 ns         1 0YQ      -0.561500
     32 C2          -1.2810    14.9310    -4.6060 c          1 0YQ       0.706700
     33 O7          -1.8970    15.9380    -4.3020 o          1 0YQ      -0.633500
     34 H2           2.5210     0.9160    -1.4040 h1         1 0YQ       0.055200
     35 H3           2.6460    -0.8470    -1.3220 h1         1 0YQ       0.055200
     36 H5          -0.2280    -1.4310    -1.3450 h1         1 0YQ       0.055200
     37 H6          -0.5240    -1.3850    -3.0890 h1         1 0YQ       0.055200
     38 H8          -0.7380     0.8080    -3.0950 h1         1 0YQ       0.062200
     39 H9          -0.2080     1.2960    -1.4790 h1         1 0YQ       0.062200
     40 H10         -0.7410     3.4680    -3.0510 hn         1 0YQ       0.304500
     41 H11          1.3260     4.2380    -4.8440 h1         1 0YQ       0.044200
     42 H12          1.7790     4.7790    -3.2220 h1         1 0YQ       0.044200
     43 H13         -0.8280     5.4380    -4.6430 h1         1 0YQ       0.056200
     44 H14         -0.3750     5.9790    -3.0200 h1         1 0YQ       0.056200
     45 H15          1.6770     6.7320    -4.8650 hn         1 0YQ       0.321500
     46 H16          1.2530     8.9090    -6.3460 h1         1 0YQ       0.079700
     47 H17          1.6980     9.3790    -3.4050 h1         1 0YQ       0.077700
     48 H18          3.7620     9.0510    -4.0570 ho         1 0YQ       0.413000
     49 H19          1.6890    11.6660    -3.6380 h1         1 0YQ       0.075700
     50 H20          3.6170    12.1720    -4.4080 ho         1 0YQ       0.405000
     51 H21          1.2440    11.5310    -6.6130 h2         1 0YQ       0.087700
     52 H22          0.6390    13.6740    -7.0820 h4         1 0YQ       0.165000
     53 H23         -0.5800    15.7130    -6.5120 ha         1 0YQ       0.174000
     54 H24         -1.7640    13.9020    -2.9110 hn         1 0YQ       0.364500
@<TRIPOS>BOND
     1    33    32 2   
     2    32    31 1   
     3    32    28 1   
     4    31    29 1   
     5    28    27 2   
     6    14    15 1   
     7    14    13 1   
     8    29    30 2   
     9    29    26 1   
    10    15    16 1   
    11    27    26 1   
    12    26    25 1   
    13    13    11 1   
    14    16    17 1   
    15     1     2 1   
    16    12    11 2   
    17    11    10 1   
    18    24    25 1   
    19    24    19 1   
    20    25    22 1   
    21     2     3 1   
    22     2     4 1   
    23    10     5 1   
    24    17    19 1   
    25    17    18 2   
    26    19    20 1   
    27     5     4 1   
    28     5     6 1   
    29    22    20 1   
    30    22    23 1   
    31     8     7 1   
    32    20    21 1   
    33     6     7 1   
    34     7     9 1   
    35     4    34 1   
    36     4    35 1   
    37     6    36 1   
    38     6    37 1   
    39    10    38 1   
    40    10    39 1   
    41    13    40 1   
    42    14    41 1   
    43    14    42 1   
    44    15    43 1   
    45    15    44 1   
    46    16    45 1   
    47    19    46 1   
    48    20    47 1   
    49    21    48 1   
    50    22    49 1   
    51    23    50 1   
    52    25    51 1   
    53    27    52 1   
    54    28    53 1   
    55    31    54 1   
@<TRIPOS>SUBSTRUCTURE
     1 0YQ         1 TEMP              0 ****  ****    0 ROOT
