@<TRIPOS>MOLECULE
0YR
   23    22     1     0     0
SMALL
bcc


@<TRIPOS>ATOM
      1 CAG          0.0000     0.0000     0.0000 c3         1 0YR       0.189400
      2 NAH          3.8320    -1.0580     3.6640 ns         1 0YR      -0.070400
      3 CAI          4.0710     0.0010     2.8640 c          1 0YR       0.530100
      4 CAJ          1.5300     0.0000     0.0000 c3         1 0YR       0.166100
      5 CAK          3.5700     0.0010     1.4430 c3         1 0YR       0.123100
      6 CAL          2.0400     0.0000     1.4430 c3         1 0YR       0.179100
      7 OAB         -0.4760    -0.1170    -1.3430 oh         1 0YR      -0.594800
      8 OAD          2.0070     1.1680    -0.6730 oh         1 0YR      -0.557800
      9 OAF          1.5630    -1.1670     2.1160 oh         1 0YR      -0.600800
     10 OAE          4.0460     1.1670     0.7700 oh         1 0YR      -0.527800
     11 OAC          4.3030    -1.0580     4.9990 oh         1 0YR      -0.441100
     12 H1          -0.3610    -0.8360     0.5860 h1         1 0YR      -0.003800
     13 H2          -0.3610     0.9260     0.4310 h1         1 0YR      -0.003800
     14 H3           3.3310    -1.8490     3.3100 hn         1 0YR       0.176500
     15 H4           1.8920    -0.8840    -0.5110 h1         1 0YR       0.014700
     16 H5           3.9320    -0.8840     0.9330 h1         1 0YR       0.011700
     17 H6           1.6790     0.8840     1.9530 h1         1 0YR       0.034700
     18 H7          -1.4150    -0.2040    -1.3370 ho         1 0YR       0.394000
     19 H8           2.0730     0.9930    -1.5970 ho         1 0YR       0.396000
     20 H9           0.8860    -0.9240     2.7260 ho         1 0YR       0.405000
     21 H10          4.9220     1.0140     0.4560 ho         1 0YR       0.391000
     22 H11          4.4570    -1.9460     5.2770 ho         1 0YR       0.389000
     23 OAA          4.6920     0.9520     3.2880 o          1 0YR      -0.599100
@<TRIPOS>BOND
     1     1     4 1   
     2     1     7 1   
     3     1    12 1   
     4     1    13 1   
     5     2     3 1   
     6     2    11 1   
     7     2    14 1   
     8     3     5 1   
     9     3    23 2   
    10     4     6 1   
    11     4     8 1   
    12     4    15 1   
    13     5     6 1   
    14     5    10 1   
    15     5    16 1   
    16     6     9 1   
    17     6    17 1   
    18     7    18 1   
    19     8    19 1   
    20     9    20 1   
    21    10    21 1   
    22    11    22 1   
@<TRIPOS>SUBSTRUCTURE
     1 0YR         1 TEMP              0 ****  ****    0 ROOT
