@<TRIPOS>MOLECULE
molecule
   23    22     1     0     0
SMALL
bcc


@<TRIPOS>ATOM
      1 CAG          0.0000     0.0000     0.0000 c3         1 0YR       0.110400
      2 NAH          3.8320    -1.0580     3.6640 ns         1 0YR      -0.473400
      3 CAI          4.0710     0.0010     2.8640 c          1 0YR       0.632100
      4 CAJ          1.5300     0.0000     0.0000 c3         1 0YR       0.140100
      5 CAK          3.5700     0.0010     1.4430 c3         1 0YR       0.089100
      6 CAL          2.0400     0.0000     1.4430 c3         1 0YR       0.150100
      7 OAB         -0.4760    -0.1170    -1.3430 oh         1 0YR      -0.612800
      8 OAD          2.0070     1.1680    -0.6730 oh         1 0YR      -0.576800
      9 OAF          1.5630    -1.1670     2.1160 oh         1 0YR      -0.618800
     10 OAE          4.0460     1.1670     0.7700 oh         1 0YR      -0.541800
     11 OAC          4.3030    -1.0580     4.9990 oh         1 0YR      -0.366100
     12 H1          -0.3610    -0.8360     0.5860 h1         1 0YR       0.031700
     13 H2          -0.3610     0.9260     0.4310 h1         1 0YR       0.031700
     14 H3           3.3310    -1.8490     3.3100 hn         1 0YR       0.334500
     15 H4           1.8920    -0.8840    -0.5110 h1         1 0YR       0.049700
     16 H5           3.9320    -0.8840     0.9330 h1         1 0YR       0.050700
     17 H6           1.6790     0.8840     1.9530 h1         1 0YR       0.075700
     18 H7          -1.4150    -0.2040    -1.3370 ho         1 0YR       0.408000
     19 H8           2.0730     0.9930    -1.5970 ho         1 0YR       0.413000
     20 H9           0.8860    -0.9240     2.7260 ho         1 0YR       0.421000
     21 H10          4.9220     1.0140     0.4560 ho         1 0YR       0.412000
     22 H11          4.4570    -1.9460     5.2770 ho         1 0YR       0.396000
     23 OAA          4.6920     0.9520     3.2880 o          1 0YR      -0.556100
@<TRIPOS>BOND
     1    11     2 1
     2     2     3 1
     3     3    23 2
     4     3     5 1
     5     5    10 1
     6     5     6 1
     7     9     6 1
     8     6     4 1
     9     4     8 1
    10     4     1 1
    11     1     7 1
    12     1    12 1
    13     1    13 1
    14     2    14 1
    15     4    15 1
    16     5    16 1
    17     6    17 1
    18     7    18 1
    19     8    19 1
    20     9    20 1
    21    10    21 1
    22    11    22 1
@<TRIPOS>SUBSTRUCTURE
     1 0YR         1 TEMP              0 ****  ****    0 ROOT
