@<TRIPOS>MOLECULE
0YR
   24    23     1     0     0
SMALL
bcc


@<TRIPOS>ATOM
      1 CAG          0.1840     0.2630     0.4390 c3         1 0YR       0.094400
      2 NAH          5.2750    -0.6700     2.8200 ny         1 0YR      -0.463300
      3 CAI          4.4500    -1.7500     2.0900 c          1 0YR       0.545100
      4 CAJ          1.6080    -0.1380     0.0240 c3         1 0YR       0.067100
      5 CAK          3.7660    -1.2180     0.8240 c3         1 0YR       0.101100
      6 CAL          2.4420    -0.5490     1.2490 c3         1 0YR       0.121100
      7 OAB          0.2170     1.4300     1.2320 oh         1 0YR      -0.595800
      8 OAD          2.2700     0.9830    -0.5470 oh         1 0YR      -0.620800
      9 OAF          2.8330     0.5550     2.0500 oh         1 0YR      -0.663800
     10 OAE          4.6670    -0.3580     0.1700 oh         1 0YR      -0.603800
     11 OAC          5.9290    -1.2360     3.8550 oh         1 0YR      -0.346300
     12 OAA          4.3980    -2.8600     2.5700 o          1 0YR      -0.346100
     13 H1          -0.4470     0.4110    -0.4760 h1         1 0YR       0.078700
     14 H2          -0.2780    -0.5260     1.0920 h1         1 0YR       0.078700
     15 H3           4.6120     0.0680     3.1370 hn         1 0YR       0.482300
     16 H4           1.5680    -0.9930    -0.7050 h1         1 0YR       0.075700
     17 H5           3.5800    -2.1120     0.1590 h1         1 0YR       0.136700
     18 H6           1.8370    -1.2660     1.8740 h1         1 0YR       0.089700
     19 H7           0.3790     2.1790     0.6420 ho         1 0YR       0.423000
     20 H8           1.8750     1.1430    -1.4140 ho         1 0YR       0.440000
     21 H9           2.1150     1.2100     2.0480 ho         1 0YR       0.484000
     22 H10          4.2190     0.4820    -0.0320 ho         1 0YR       0.475000
     23 H11          6.4410    -0.5410     4.3290 ho         1 0YR       0.466000
     24 HAH2         5.9340    -0.2660     2.1260 hn         1 0YR       0.482300
@<TRIPOS>BOND
     1     1     4 1   
     2     1     7 1   
     3     1    13 1   
     4     1    14 1   
     5     2     3 1   
     6     2    11 1   
     7     2    15 1   
     8     2    24 1   
     9     3     5 1   
    10     3    12 2   
    11     4     6 1   
    12     4     8 1   
    13     4    16 1   
    14     5     6 1   
    15     5    10 1   
    16     5    17 1   
    17     6     9 1   
    18     6    18 1   
    19     7    19 1   
    20     8    20 1   
    21     9    21 1   
    22    10    22 1   
    23    11    23 1   
@<TRIPOS>SUBSTRUCTURE
     1 0YR         1 TEMP              0 ****  ****    0 ROOT
