@<TRIPOS>MOLECULE
0YS
   51    52     1     0     0
SMALL
bcc


@<TRIPOS>ATOM
      1 O7           0.0000     0.0000     0.0000 o          1 0YS      -0.895300
      2 C17          1.2080     0.0000     0.0000 c          1 0YS       0.978600
      3 O8           1.8790     0.0000     1.1620 o          1 0YS      -0.895300
      4 C9           1.9620    -0.0080    -1.3060 c3         1 0YS      -0.104300
      5 N1           1.0100    -0.0140    -2.4190 ns         1 0YS      -0.136900
      6 C10          0.4940    -1.1790    -2.8590 c          1 0YS       0.580700
      7 C11         -0.4650    -1.1840    -3.9810 ca         1 0YS      -0.093600
      8 C16         -0.8350     0.0170    -4.5920 ca         1 0YS      -0.046000
      9 C15         -1.7260     0.0070    -5.6430 ca         1 0YS      -0.065600
     10 Cl1         -2.1860     1.4990    -6.4030 cl         1 0YS      -0.043400
     11 C14         -2.2580    -1.1960    -6.0950 ca         1 0YS       0.118100
     12 O6          -3.1350    -1.2010    -7.1310 oh         1 0YS      -0.490100
     13 C13         -1.8910    -2.3920    -5.4900 ca         1 0YS      -0.065600
     14 Cl          -2.5570    -3.8910    -6.0600 cl         1 0YS      -0.043400
     15 C12         -1.0010    -2.3910    -4.4380 ca         1 0YS      -0.046000
     16 O5           0.8180    -2.2250    -2.3310 o          1 0YS      -0.624100
     17 C8           2.8420     1.2390    -1.3930 c3         1 0YS      -0.015400
     18 C7           3.6990     1.1710    -2.6590 c3         1 0YS       0.073500
     19 C6           4.5100     2.4790    -2.8410 c3         1 0YS      -0.079400
     20 C5           5.7070     2.0250    -3.7080 c3         1 0YS      -0.059400
     21 N2           4.7530     0.1340    -2.5220 n7         1 0YS      -0.543200
     22 C3           5.8130     0.5050    -3.4850 c3         1 0YS      -0.041800
     23 C4           7.1660     0.1620    -2.9180 c          1 0YS       0.999600
     24 O4           7.3850     0.2610    -1.5980 o          1 0YS      -0.880800
     25 O3           8.0540    -0.2010    -3.6520 o          1 0YS      -0.880800
     26 C2           5.5950    -0.2330    -4.8080 c3         1 0YS       0.251100
     27 O2           5.8250    -1.6300    -4.6170 oh         1 0YS      -0.506800
     28 C            4.1590    -0.0120    -5.2840 c3         1 0YS      -0.248500
     29 N            3.9680     1.4020    -5.6280 nz         1 0YS       0.001400
     30 C1           3.8960    -0.8650    -6.4990 c          1 0YS       0.972600
     31 O            3.6140    -2.1700    -6.3550 o          1 0YS      -0.851300
     32 O1           3.9400    -0.3740    -7.6020 o          1 0YS      -0.851300
     33 H2           2.5840    -0.8930    -1.3580 h1         1 0YS       0.090700
     34 H3           0.7040     0.8510    -2.8200 hn         1 0YS       0.142500
     35 H4          -0.4690     0.9590    -4.2020 ha         1 0YS       0.132000
     36 H5          -4.0140    -1.1200    -6.7990 ho         1 0YS       0.394000
     37 H6          -0.7170    -3.3240    -3.9670 ha         1 0YS       0.132000
     38 H7           2.2150     2.1220    -1.4300 hc         1 0YS       0.031700
     39 H8           3.4850     1.2890    -0.5230 hc         1 0YS       0.031700
     40 H9           3.0880     0.9780    -3.5320 h1         1 0YS       0.000700
     41 H10          3.9210     3.2240    -3.3620 hc         1 0YS       0.016700
     42 H11          4.8530     2.8520    -1.8830 hc         1 0YS       0.016700
     43 H12          5.5140     2.2380    -4.7530 hc         1 0YS       0.002700
     44 H13          6.6150     2.5160    -3.3790 hc         1 0YS       0.002700
     45 H14          5.1250     0.1560    -1.5920 hn         1 0YS       0.326800
     46 H17          6.2850     0.1480    -5.5510 h1         1 0YS       0.003700
     47 H18          6.4840    -1.9270    -5.2230 ho         1 0YS       0.389000
     48 H19          3.4700    -0.2880    -4.4950 hx         1 0YS       0.137700
     49 H20          3.1700     1.4960    -6.2260 hn         1 0YS       0.226467
     50 H21          4.7810     1.7430    -6.1020 hn         1 0YS       0.226467
     51 HN3          3.8220     1.9320    -4.7920 hn         1 0YS       0.226467
@<TRIPOS>BOND
     1     1     2 1   
     2     2     3 1   
     3     2     4 1   
     4     4     5 1   
     5     4    17 1   
     6     4    33 1   
     7     5     6 1   
     8     5    34 1   
     9     6     7 1   
    10     6    16 2   
    11     7     8 ar  
    12     7    15 ar  
    13     8     9 ar  
    14     8    35 1   
    15     9    10 1   
    16     9    11 ar  
    17    11    12 1   
    18    11    13 ar  
    19    12    36 1   
    20    13    14 1   
    21    13    15 ar  
    22    15    37 1   
    23    17    18 1   
    24    17    38 1   
    25    17    39 1   
    26    18    19 1   
    27    18    21 1   
    28    18    40 1   
    29    19    20 1   
    30    19    41 1   
    31    19    42 1   
    32    20    22 1   
    33    20    43 1   
    34    20    44 1   
    35    21    22 1   
    36    21    45 1   
    37    22    23 1   
    38    22    26 1   
    39    23    24 1   
    40    23    25 1   
    41    26    27 1   
    42    26    28 1   
    43    26    46 1   
    44    27    47 1   
    45    28    29 1   
    46    28    30 1   
    47    28    48 1   
    48    29    49 1   
    49    29    50 1   
    50    29    51 1   
    51    30    31 1   
    52    30    32 1   
@<TRIPOS>SUBSTRUCTURE
     1 0YS         1 TEMP              0 ****  ****    0 ROOT
