@<TRIPOS>MOLECULE
0YS
   52    53     1     0     0
SMALL
bcc


@<TRIPOS>ATOM
      1 O7           0.2050    -0.6330    -1.3420 o          1 0YS      -0.798300
      2 C17          1.3200    -0.7930    -0.7760 c          1 0YS       0.923600
      3 O8           1.5340    -1.1030     0.4170 o          1 0YS      -0.798300
      4 C9           2.6070    -0.6210    -1.6820 c3         1 0YS      -0.021500
      5 N1           2.2340    -0.1750    -3.0600 ny         1 0YS      -0.658800
      6 C10          2.2370    -1.2240    -4.0950 c          1 0YS       0.591700
      7 C11          1.5390    -0.8650    -5.3540 ca         1 0YS      -0.193600
      8 C16          0.5370    -1.7220    -5.8180 ca         1 0YS      -0.035000
      9 C15         -0.1210    -1.4250    -7.0100 ca         1 0YS      -0.051600
     10 Cl1         -1.3470    -2.4730    -7.5610 cl         1 0YS      -0.069900
     11 C14          0.2250    -0.2750    -7.7500 ca         1 0YS       0.163100
     12 O6          -0.3830     0.0610    -8.9310 oh         1 0YS      -0.477100
     13 C13          1.2460     0.5750    -7.2740 ca         1 0YS      -0.051600
     14 Cl           1.7040     1.9630    -8.1310 cl         1 0YS      -0.069900
     15 C12          1.8990     0.2800    -6.0730 ca         1 0YS      -0.035000
     16 O5           2.7800    -2.3100    -3.9000 o          1 0YS      -0.480100
     17 C8           3.6150     0.3120    -1.0290 c3         1 0YS      -0.072400
     18 C7           3.1480     1.7600    -0.8220 c3         1 0YS       0.163500
     19 C6           4.3350     2.5610    -0.2310 c3         1 0YS      -0.109400
     20 C5           4.9690     3.2450    -1.4340 c3         1 0YS      -0.085400
     21 N2           2.7520     2.4270    -2.0700 n7         1 0YS      -0.826200
     22 C3           3.8980     3.1990    -2.5670 c3         1 0YS       0.030200
     23 C4           4.6090     2.5400    -3.8140 c          1 0YS       0.948600
     24 O4           4.1890     1.4470    -4.3050 o          1 0YS      -0.828300
     25 O3           5.6120     3.1540    -4.2590 o          1 0YS      -0.828300
     26 C2           3.5450     4.6360    -3.0310 c3         1 0YS       0.149100
     27 O2           2.5970     4.6940    -4.0680 oh         1 0YS      -0.597800
     28 C            3.1130     5.5570    -1.8700 c3         1 0YS      -0.100500
     29 N            3.7640     6.8990    -2.0030 nz         1 0YS      -0.830600
     30 C1           1.5410     5.7910    -1.7460 c          1 0YS       0.937600
     31 O            1.2090     6.9580    -1.3960 o          1 0YS      -0.776300
     32 O1           0.8090     4.8090    -1.9720 o          1 0YS      -0.776300
     33 H2           3.0780    -1.6440    -1.7540 hx         1 0YS       0.089700
     34 H3           2.8860     0.6080    -3.3730 hn         1 0YS       0.507300
     35 H4           0.2700    -2.6230    -5.2400 ha         1 0YS       0.201500
     36 H5          -1.0920    -0.5800    -9.1030 ho         1 0YS       0.431000
     37 H6           2.7110     0.9490    -5.7050 ha         1 0YS       0.201500
     38 H7           4.5700     0.3150    -1.6210 hc         1 0YS       0.065200
     39 H8           3.8170    -0.1230    -0.0120 hc         1 0YS       0.065200
     40 H9           2.2740     1.7390    -0.1100 h1         1 0YS       0.083700
     41 H10          3.9590     3.3100     0.5090 hc         1 0YS       0.038700
     42 H11          5.0580     1.8930     0.2940 hc         1 0YS       0.038700
     43 H12          5.2870     4.2900    -1.2030 hc         1 0YS       0.039700
     44 H13          5.8840     2.6920    -1.7690 hc         1 0YS       0.039700
     45 H14          1.9560     3.0220    -1.9130 hn         1 0YS       0.398800
     46 H17          4.4950     5.0210    -3.5230 h1         1 0YS       0.089700
     47 H18          1.7860     4.2480    -3.7770 ho         1 0YS       0.442000
     48 H19          3.4240     5.1240    -0.8780 hx         1 0YS       0.095700
     49 H20          4.6850     6.9090    -1.5800 hn         1 0YS       0.442800
     50 H21          3.8350     7.1340    -2.9940 hn         1 0YS       0.442800
     51 HN3          3.1270     7.5830    -1.5410 hn         1 0YS       0.442800
     52 H121         1.2690     0.2040    -2.9870 hn         1 0YS       0.507300
@<TRIPOS>BOND
     1     1     2 1   
     2     2     3 1   
     3     2     4 1   
     4     4     5 1   
     5     4    17 1   
     6     4    33 1   
     7     5     6 1   
     8     5    34 1   
     9     5    52 1   
    10     6     7 1   
    11     6    16 2   
    12     7     8 ar  
    13     7    15 ar  
    14     8     9 ar  
    15     8    35 1   
    16     9    10 1   
    17     9    11 ar  
    18    11    12 1   
    19    11    13 ar  
    20    12    36 1   
    21    13    14 1   
    22    13    15 ar  
    23    15    37 1   
    24    17    18 1   
    25    17    38 1   
    26    17    39 1   
    27    18    19 1   
    28    18    21 1   
    29    18    40 1   
    30    19    20 1   
    31    19    41 1   
    32    19    42 1   
    33    20    22 1   
    34    20    43 1   
    35    20    44 1   
    36    21    22 1   
    37    21    45 1   
    38    22    23 1   
    39    22    26 1   
    40    23    24 1   
    41    23    25 1   
    42    26    27 1   
    43    26    28 1   
    44    26    46 1   
    45    27    47 1   
    46    28    29 1   
    47    28    30 1   
    48    28    48 1   
    49    29    49 1   
    50    29    50 1   
    51    29    51 1   
    52    30    31 1   
    53    30    32 1   
@<TRIPOS>SUBSTRUCTURE
     1 0YS         1 TEMP              0 ****  ****    0 ROOT
