@<TRIPOS>MOLECULE
0YU
   58    62     1     0     0
SMALL
bcc


@<TRIPOS>ATOM
      1 NAU          0.0000     0.0000     0.0000 na         1 0YU       0.256100
      2 CAQ          1.3690     0.0000     0.0000 cc         1 0YU      -0.447600
      3 CAS          1.7650     0.0000     1.2890 cd         1 0YU       0.327200
      4 NAY          0.6740     0.0000     2.0650 nd         1 0YU      -0.604000
      5 CBC         -0.3980     0.0070     1.3050 cc         1 0YU       0.247000
      6 CBG         -1.7970     0.0100     1.7840 ca         1 0YU      -0.114500
      7 CAL         -2.8500     0.0010     0.8660 ca         1 0YU      -0.074000
      8 CAH         -4.1530     0.0050     1.3140 ca         1 0YU      -0.112000
      9 CAK         -2.0690     0.0170     3.1530 ca         1 0YU      -0.074000
     10 CAG         -3.3730     0.0200     3.5950 ca         1 0YU      -0.112000
     11 CBE         -4.4200     0.0170     2.6790 ca         1 0YU      -0.100400
     12 NAW         -5.7410     0.0220     3.1310 ns         1 0YU      -0.017100
     13 CBA         -6.0610     0.6580     4.2750 c          1 0YU       0.560700
     14 OAB         -5.2190     1.3060     4.8640 o          1 0YU      -0.575100
     15 CBI         -7.4360     0.5670     4.8130 ca         1 0YU      -0.040600
     16 CBJ         -7.6470     0.1170     6.1180 ca         1 0YU      -0.412200
     17 CAO         -8.9270     0.0380     6.6200 ca         1 0YU       0.050000
     18 NBK         -6.4960    -0.2760     6.9600 no         1 0YU       1.041200
     19 OAD         -6.6670    -0.5550     8.1330 o          1 0YU      -0.433500
     20 OAC         -5.3770    -0.3200     6.4800 o          1 0YU      -0.433500
     21 CAN         -8.5220     0.9370     4.0180 ca         1 0YU      -0.105000
     22 CAM         -9.8030     0.8540     4.5190 ca         1 0YU      -0.037000
     23 CBH        -10.0140     0.4070     5.8250 ca         1 0YU      -0.162600
     24 CAZ        -11.3890     0.3220     6.3640 c          1 0YU       0.577700
     25 OAA        -11.5730    -0.0710     7.5000 o          1 0YU      -0.615100
     26 NAV        -12.4380     0.6780     5.5970 ns         1 0YU      -0.024100
     27 CBD        -13.7240     0.6900     6.1350 ca         1 0YU      -0.091400
     28 CAF        -14.6310     1.6720     5.7470 ca         1 0YU      -0.120500
     29 CAJ        -15.9010     1.6850     6.2780 ca         1 0YU      -0.055000
     30 CAE        -14.1010    -0.2820     7.0560 ca         1 0YU      -0.120500
     31 CAI        -15.3700    -0.2720     7.5900 ca         1 0YU      -0.055000
     32 CBF        -16.2800     0.7140     7.2060 ca         1 0YU      -0.133900
     33 CBB        -17.6440     0.7270     7.7770 ce         1 0YU       0.526800
     34 NAX        -18.0530    -0.1470     8.6370 n2         1 0YU      -0.648900
     35 CAR        -19.4460     0.1290     9.0150 c3         1 0YU       0.153800
     36 CAP        -19.8170     1.3790     8.1940 c3         1 0YU       0.118800
     37 NAT        -18.5820     1.6720     7.4460 nu         1 0YU      -0.544200
     38 H1          -0.5950     0.0010    -0.8040 hn         1 0YU       0.121700
     39 H2           2.0140    -0.0020    -0.8710 h4         1 0YU       0.151000
     40 H3           2.7900    -0.0020     1.6370 h4         1 0YU       0.003100
     41 H5          -2.6420    -0.0090    -0.1970 ha         1 0YU       0.113500
     42 H6          -4.9700     0.0000     0.6030 ha         1 0YU       0.131500
     43 H7          -1.2540     0.0190     3.8670 ha         1 0YU       0.113500
     44 H8          -3.5840     0.0280     4.6580 ha         1 0YU       0.131500
     45 H9          -6.4460    -0.4700     2.6180 hn         1 0YU       0.162500
     46 H10         -9.0910    -0.3100     7.6330 ha         1 0YU       0.160000
     47 H11         -8.3580     1.2830     3.0050 ha         1 0YU       0.119000
     48 H12        -10.6460     1.1410     3.9020 ha         1 0YU       0.108000
     49 H13        -12.2820     1.0250     4.6710 hn         1 0YU       0.167500
     50 H14        -14.3370     2.4250     5.0260 ha         1 0YU       0.124500
     51 H15        -16.6060     2.4510     5.9760 ha         1 0YU       0.117500
     52 H16        -13.3940    -1.0470     7.3540 ha         1 0YU       0.124500
     53 H17        -15.6620    -1.0280     8.3090 ha         1 0YU       0.117500
     54 H21        -20.0450    -0.6880     8.6310 h1         1 0YU       0.035200
     55 H22        -19.4380     0.4270    10.0560 h1         1 0YU       0.035200
     56 H23        -20.5620     1.0740     7.4690 h1         1 0YU       0.027700
     57 H24        -19.9610     2.1900     8.8980 h1         1 0YU       0.027700
     58 H25        -18.4520     2.4270     6.8020 hn         1 0YU       0.314800
@<TRIPOS>BOND
     1     1     2 1   
     2     1     5 1   
     3     1    38 1   
     4     2     3 2   
     5     2    39 1   
     6     3     4 1   
     7     3    40 1   
     8     4     5 2   
     9     5     6 1   
    10     6     7 ar  
    11     6     9 ar  
    12     7     8 ar  
    13     7    41 1   
    14     8    11 ar  
    15     8    42 1   
    16     9    10 ar  
    17     9    43 1   
    18    10    11 ar  
    19    10    44 1   
    20    11    12 1   
    21    12    13 1   
    22    12    45 1   
    23    13    14 2   
    24    13    15 1   
    25    15    16 ar  
    26    15    21 ar  
    27    16    17 ar  
    28    16    18 1   
    29    17    23 ar  
    30    17    46 1   
    31    18    19 1   
    32    18    20 1   
    33    21    22 ar  
    34    21    47 1   
    35    22    23 ar  
    36    22    48 1   
    37    23    24 1   
    38    24    25 2   
    39    24    26 1   
    40    26    27 1   
    41    26    49 1   
    42    27    28 ar  
    43    27    30 ar  
    44    28    29 ar  
    45    28    50 1   
    46    29    32 ar  
    47    29    51 1   
    48    30    31 ar  
    49    30    52 1   
    50    31    32 ar  
    51    31    53 1   
    52    32    33 1   
    53    33    34 2   
    54    33    37 1   
    55    34    35 1   
    56    35    36 1   
    57    35    54 1   
    58    35    55 1   
    59    36    37 1   
    60    36    56 1   
    61    36    57 1   
    62    37    58 1   
@<TRIPOS>SUBSTRUCTURE
     1 0YU         1 TEMP              0 ****  ****    0 ROOT
