@<TRIPOS>MOLECULE
0YU
   58    62     1     0     0
SMALL
bcc


@<TRIPOS>ATOM
      1 NAU          1.0030     0.0790     0.6410 na         1 0YU      -0.307900
      2 CAQ          2.1580     0.8460     0.7430 cc         1 0YU      -0.254600
      3 CAS          1.7490     2.1080     1.2190 cd         1 0YU       0.293200
      4 NAY          0.3730     2.1290     1.4050 nd         1 0YU      -0.657000
      5 CBC         -0.0730     0.8900     1.0510 cc         1 0YU       0.446000
      6 CBG         -1.4570     0.4270     1.0710 ca         1 0YU      -0.137500
      7 CAL         -2.4980     1.3460     0.8750 ca         1 0YU      -0.087000
      8 CAH         -3.8210     0.9260     0.8870 ca         1 0YU      -0.159500
      9 CAK         -1.7680    -0.9190     1.2890 ca         1 0YU      -0.087000
     10 CAG         -3.0900    -1.3540     1.3070 ca         1 0YU      -0.159500
     11 CBE         -4.1410    -0.4370     1.1050 ca         1 0YU       0.062600
     12 NAW         -5.5000    -0.8070     1.1550 ns         1 0YU      -0.447100
     13 CBA         -5.9950    -2.0850     0.9870 c          1 0YU       0.662700
     14 OAB         -5.2910    -3.1010     0.8530 o          1 0YU      -0.564100
     15 CBI         -7.4900    -2.2340     1.0710 ca         1 0YU      -0.073600
     16 CBJ         -8.3960    -1.7100     0.1350 ca         1 0YU      -0.141200
     17 CAO         -9.7690    -1.9820     0.2350 ca         1 0YU      -0.039000
     18 NBK         -7.9410    -0.8600    -1.0080 no         1 0YU       0.308200
     19 OAD         -8.2120    -1.2020    -2.1220 o          1 0YU      -0.188000
     20 OAC         -7.3560     0.1640    -0.7690 o          1 0YU      -0.188000
     21 CAN         -7.9820    -3.0220     2.1180 ca         1 0YU      -0.095000
     22 CAM         -9.3470    -3.2680     2.2460 ca         1 0YU      -0.081000
     23 CBH        -10.2400    -2.7430     1.3080 ca         1 0YU      -0.131600
     24 CAZ        -11.7130    -3.0110     1.3770 c          1 0YU       0.676700
     25 OAA        -12.3530    -3.2810     0.3460 o          1 0YU      -0.564100
     26 NAV        -12.2800    -2.9220     2.6390 ns         1 0YU      -0.463100
     27 CBD        -13.6320    -3.1090     2.9750 ca         1 0YU       0.075600
     28 CAF        -14.5910    -3.6150     2.0730 ca         1 0YU      -0.172500
     29 CAJ        -15.9110    -3.7870     2.4780 ca         1 0YU      -0.070000
     30 CAE        -14.0440    -2.7900     4.2930 ca         1 0YU      -0.172500
     31 CAI        -15.3640    -2.9710     4.6830 ca         1 0YU      -0.070000
     32 CBF        -16.3120    -3.4680     3.7790 ca         1 0YU      -0.137900
     33 CBB        -17.7060    -3.6520     4.2140 ce         1 0YU       0.589800
     34 NAX        -18.0690    -4.0170     5.4290 n2         1 0YU      -0.607900
     35 CAR        -19.5270    -4.0910     5.4650 c3         1 0YU       0.075800
     36 CAP        -20.0170    -3.7050     4.0280 c3         1 0YU       0.125800
     37 NAT        -18.7890    -3.3590     3.3030 nu         1 0YU      -0.802200
     38 H1           0.9390    -0.8500     0.3170 hn         1 0YU       0.301700
     39 H2           3.1420     0.4610     0.4840 h4         1 0YU       0.178000
     40 H3           2.3650     2.9810     1.4330 h4         1 0YU       0.043100
     41 H5          -2.2680     2.4110     0.7090 ha         1 0YU       0.145500
     42 H6          -4.6190     1.6670     0.7210 ha         1 0YU       0.155500
     43 H7          -0.9720    -1.6570     1.4670 ha         1 0YU       0.145500
     44 H8          -3.3000    -2.4230     1.4760 ha         1 0YU       0.155500
     45 H9          -6.1500    -0.0490     1.0880 hn         1 0YU       0.340500
     46 H10        -10.4810    -1.6190    -0.5300 ha         1 0YU       0.188000
     47 H11         -7.2690    -3.4630     2.8350 ha         1 0YU       0.171000
     48 H12         -9.7060    -3.9000     3.0740 ha         1 0YU       0.157000
     49 H13        -11.6910    -2.6240     3.3850 hn         1 0YU       0.321500
     50 H14        -14.3110    -3.8770     1.0390 ha         1 0YU       0.154500
     51 H15        -16.6320    -4.1890     1.7500 ha         1 0YU       0.146500
     52 H16        -13.3230    -2.3940     5.0260 ha         1 0YU       0.154500
     53 H17        -15.6640    -2.7210     5.7140 ha         1 0YU       0.146500
     54 H21        -19.8460    -5.1260     5.7500 h1         1 0YU       0.068700
     55 H22        -19.9220    -3.3680     6.2250 h1         1 0YU       0.068700
     56 H23        -20.5790    -4.5470     3.5500 h1         1 0YU       0.054200
     57 H24        -20.6740    -2.7980     4.0580 h1         1 0YU       0.054200
     58 H25        -18.6970    -3.7820     2.4050 hn         1 0YU       0.390800
@<TRIPOS>BOND
     1     1     2 1   
     2     1     5 1   
     3     1    38 1   
     4     2     3 2   
     5     2    39 1   
     6     3     4 1   
     7     3    40 1   
     8     4     5 2   
     9     5     6 1   
    10     6     7 ar  
    11     6     9 ar  
    12     7     8 ar  
    13     7    41 1   
    14     8    11 ar  
    15     8    42 1   
    16     9    10 ar  
    17     9    43 1   
    18    10    11 ar  
    19    10    44 1   
    20    11    12 1   
    21    12    13 1   
    22    12    45 1   
    23    13    14 2   
    24    13    15 1   
    25    15    16 ar  
    26    15    21 ar  
    27    16    17 ar  
    28    16    18 1   
    29    17    23 ar  
    30    17    46 1   
    31    18    19 1   
    32    18    20 1   
    33    21    22 ar  
    34    21    47 1   
    35    22    23 ar  
    36    22    48 1   
    37    23    24 1   
    38    24    25 2   
    39    24    26 1   
    40    26    27 1   
    41    26    49 1   
    42    27    28 ar  
    43    27    30 ar  
    44    28    29 ar  
    45    28    50 1   
    46    29    32 ar  
    47    29    51 1   
    48    30    31 ar  
    49    30    52 1   
    50    31    32 ar  
    51    31    53 1   
    52    32    33 1   
    53    33    34 2   
    54    33    37 1   
    55    34    35 1   
    56    35    36 1   
    57    35    54 1   
    58    35    55 1   
    59    36    37 1   
    60    36    56 1   
    61    36    57 1   
    62    37    58 1   
@<TRIPOS>SUBSTRUCTURE
     1 0YU         1 TEMP              0 ****  ****    0 ROOT
