@<TRIPOS>MOLECULE
molecule
   58    62     1     0     0
SMALL
bcc


@<TRIPOS>ATOM
      1 NAU          0.0000     0.0000     0.0000 na         1 0YU      -0.293900
      2 CAQ          1.3690     0.0000     0.0000 cc         1 0YU      -0.273600
      3 CAS          1.7650     0.0000     1.2890 cd         1 0YU       0.316200
      4 NAY          0.6740     0.0000     2.0650 nd         1 0YU      -0.684000
      5 CBC         -0.3980     0.0070     1.3050 cc         1 0YU       0.457000
      6 CBG         -1.7970     0.0100     1.7840 ca         1 0YU      -0.124500
      7 CAL         -2.8500     0.0010     0.8660 ca         1 0YU      -0.092000
      8 CAH         -4.1530     0.0050     1.3140 ca         1 0YU      -0.142000
      9 CAK         -2.0690     0.0170     3.1530 ca         1 0YU      -0.092000
     10 CAG         -3.3730     0.0200     3.5950 ca         1 0YU      -0.142000
     11 CBE         -4.4200     0.0170     2.6790 ca         1 0YU       0.054600
     12 NAW         -5.7410     0.0220     3.1310 ns         1 0YU      -0.468100
     13 CBA         -6.0610     0.6580     4.2750 c          1 0YU       0.663700
     14 OAB         -5.2190     1.3060     4.8640 o          1 0YU      -0.536100
     15 CBI         -7.4360     0.5670     4.8130 ca         1 0YU      -0.064600
     16 CBJ         -7.6470     0.1170     6.1180 ca         1 0YU      -0.126200
     17 CAO         -8.9270     0.0380     6.6200 ca         1 0YU      -0.015000
     18 NBK         -6.4960    -0.2760     6.9600 no         1 0YU       0.292200
     19 OAD         -6.6670    -0.5550     8.1330 o          1 0YU      -0.183000
     20 OAC         -5.3770    -0.3200     6.4800 o          1 0YU      -0.183000
     21 CAN         -8.5220     0.9370     4.0180 ca         1 0YU      -0.122000
     22 CAM         -9.8030     0.8540     4.5190 ca         1 0YU      -0.076000
     23 CBH        -10.0140     0.4070     5.8250 ca         1 0YU      -0.137600
     24 CAZ        -11.3890     0.3220     6.3640 c          1 0YU       0.670700
     25 OAA        -11.5730    -0.0710     7.5000 o          1 0YU      -0.571100
     26 NAV        -12.4380     0.6780     5.5970 ns         1 0YU      -0.468100
     27 CBD        -13.7240     0.6900     6.1350 ca         1 0YU       0.059600
     28 CAF        -14.6310     1.6720     5.7470 ca         1 0YU      -0.150000
     29 CAJ        -15.9010     1.6850     6.2780 ca         1 0YU      -0.078500
     30 CAE        -14.1010    -0.2820     7.0560 ca         1 0YU      -0.150000
     31 CAI        -15.3700    -0.2720     7.5900 ca         1 0YU      -0.078500
     32 CBF        -16.2800     0.7140     7.2060 ca         1 0YU      -0.132900
     33 CBB        -17.6440     0.7270     7.7770 ce         1 0YU       0.657800
     34 NAX        -18.0530    -0.1470     8.6370 n2         1 0YU      -0.675900
     35 CAR        -19.4460     0.1290     9.0150 c3         1 0YU       0.092800
     36 CAP        -19.8170     1.3790     8.1940 c3         1 0YU       0.176800
     37 NAT        -18.5820     1.6720     7.4460 nu         1 0YU      -0.934200
     38 H1          -0.5950     0.0010    -0.8040 hn         1 0YU       0.298700
     39 H2           2.0140    -0.0020    -0.8710 h4         1 0YU       0.173000
     40 H3           2.7900    -0.0020     1.6370 h4         1 0YU       0.042100
     41 H5          -2.6420    -0.0090    -0.1970 ha         1 0YU       0.144000
     42 H6          -4.9700     0.0000     0.6030 ha         1 0YU       0.154000
     43 H7          -1.2540     0.0190     3.8670 ha         1 0YU       0.144000
     44 H8          -3.5840     0.0280     4.6580 ha         1 0YU       0.154000
     45 H9          -6.4460    -0.4700     2.6180 hn         1 0YU       0.322500
     46 H10         -9.0910    -0.3100     7.6330 ha         1 0YU       0.199000
     47 H11         -8.3580     1.2830     3.0050 ha         1 0YU       0.155000
     48 H12        -10.6460     1.1410     3.9020 ha         1 0YU       0.140000
     49 H13        -12.2820     1.0250     4.6710 hn         1 0YU       0.322500
     50 H14        -14.3370     2.4250     5.0260 ha         1 0YU       0.149000
     51 H15        -16.6060     2.4510     5.9760 ha         1 0YU       0.148000
     52 H16        -13.3940    -1.0470     7.3540 ha         1 0YU       0.149000
     53 H17        -15.6620    -1.0280     8.3090 ha         1 0YU       0.148000
     54 H21        -20.0450    -0.6880     8.6310 h1         1 0YU       0.073200
     55 H22        -19.4380     0.4270    10.0560 h1         1 0YU       0.073200
     56 H23        -20.5620     1.0740     7.4690 h1         1 0YU       0.056200
     57 H24        -19.9610     2.1900     8.8980 h1         1 0YU       0.056200
     58 H25        -18.4520     2.4270     6.8020 hn         1 0YU       0.449800
@<TRIPOS>BOND
     1    36    35 1   
     2    36    37 1   
     3    31    30 ar  
     4    31    32 ar  
     5    30    27 ar  
     6    35    34 1   
     7    34    33 2   
     8    37    33 1   
     9    33    32 1   
    10    32    29 ar  
    11    27    26 1   
    12    27    28 ar  
    13    26    24 1   
    14    20    18 1   
    15    29    28 ar  
    16     8     7 ar  
    17     8    11 ar  
    18    18    16 1   
    19    18    19 1   
    20    17    16 ar  
    21    17    23 ar  
    22    24    23 1   
    23    24    25 2   
    24    16    15 ar  
    25    12    13 1   
    26    12    11 1   
    27    23    22 ar  
    28     7     6 ar  
    29    15    21 ar  
    30    15    13 1   
    31    22    21 ar  
    32    13    14 2   
    33    11    10 ar  
    34     6     5 1   
    35     6     9 ar  
    36    10     9 ar  
    37     5     1 1   
    38     5     4 2   
    39     1     2 1   
    40     4     3 1   
    41     2     3 2   
    42     1    38 1   
    43     2    39 1   
    44     3    40 1   
    45     7    41 1   
    46     8    42 1   
    47     9    43 1   
    48    10    44 1   
    49    12    45 1   
    50    17    46 1   
    51    21    47 1   
    52    22    48 1   
    53    26    49 1   
    54    28    50 1   
    55    29    51 1   
    56    30    52 1   
    57    31    53 1   
    58    35    54 1   
    59    35    55 1   
    60    36    56 1   
    61    36    57 1   
    62    37    58 1   
@<TRIPOS>SUBSTRUCTURE
     1 0YU         1 TEMP              0 ****  ****    0 ROOT
