@<TRIPOS>MOLECULE
0YV
   54    56     1     0     0
SMALL
bcc


@<TRIPOS>ATOM
      1 NAA          0.0000     0.0000     0.0000 nz         1 0YV      -0.050100
      2 CAS          1.4690     0.0000     0.0000 c3         1 0YV       0.058800
      3 CAU          1.9790     0.0000     1.4420 c3         1 0YV      -0.023100
      4 CBC          3.4860     0.0010     1.4420 ca         1 0YV      -0.115800
      5 CAQ          4.1740     1.1960     1.4420 ca         1 0YV      -0.099500
      6 CAN          4.1770    -1.1980     1.4470 ca         1 0YV      -0.075500
      7 CAW          5.5620    -1.2080     1.4470 ca         1 0YV       0.011100
      8 BrC          6.4940    -2.8530     1.4530 br         1 0YV      -0.003600
      9 CAL          6.2620    -0.0190     1.4400 ca         1 0YV      -0.037500
     10 CBA          5.5710     1.1950     1.4420 ca         1 0YV       0.103500
     11 CAG          6.2910     2.4330     1.4360 cg         1 0YV      -0.172500
     12 CAE          6.8760     3.4510     1.4120 ch         1 0YV      -0.054000
     13 CAY          7.4680     4.8450     1.7650 ca         1 0YV       0.012000
     14 CAP          7.2510     6.0760     1.5600 ca         1 0YV      -0.064000
     15 CAJ          9.2070     4.9080     1.8930 ca         1 0YV      -0.013500
     16 CAI          9.3360     6.0190     3.0190 ca         1 0YV      -0.138000
     17 CAK          8.9820     7.2270     2.7190 ca         1 0YV      -0.013500
     18 CAZ          7.8860     7.3190     1.9500 ca         1 0YV       0.012000
     19 CAF          6.8900     8.5450     2.1000 cg         1 0YV      -0.054000
     20 CAH          6.3800     9.5850     1.9390 ch         1 0YV      -0.172500
     21 CBB          5.5870    11.1520     2.1290 ca         1 0YV       0.103500
     22 CAR          4.1420    10.9820     2.1550 ca         1 0YV      -0.099500
     23 CAM          6.2860    12.3240     2.2330 ca         1 0YV      -0.037500
     24 CAX          5.5910    13.4510     3.1240 ca         1 0YV       0.011100
     25 BrD          6.4500    14.9050     3.4760 br         1 0YV      -0.003600
     26 CAO          4.1970    13.2880     2.9830 ca         1 0YV      -0.075500
     27 CBD          3.5320    12.3880     2.3220 ca         1 0YV      -0.115800
     28 CAV          2.1580    12.1900     2.3090 c3         1 0YV      -0.023100
     29 CAT          1.4880    11.6190     3.3380 c3         1 0YV       0.058800
     30 NAB         -0.1320    12.1470     3.2400 nz         1 0YV      -0.050100
     31 H1          -0.3340    -0.0800    -0.9400 hn         1 0YV       0.244300
     32 H2          -0.3340    -0.7740     0.5390 hn         1 0YV       0.244300
     33 H4           1.8300     0.8840    -0.5110 hx         1 0YV       0.077700
     34 H5           1.8300    -0.8850    -0.5110 hx         1 0YV       0.077700
     35 H6           1.2620     0.5030     2.0790 hc         1 0YV       0.043950
     36 H7           2.1080    -1.0210     1.7790 hc         1 0YV       0.043950
     37 H8           3.6310     2.1340     1.4290 ha         1 0YV       0.123500
     38 H9           3.6330    -2.1360     1.4560 ha         1 0YV       0.105000
     39 H10          7.3460    -0.0290     1.4510 ha         1 0YV       0.137000
     40 H11          6.3560     6.2410     0.9730 ha         1 0YV       0.073000
     41 H12          9.8230     4.3770     1.1770 ha         1 0YV       0.137000
     42 H13         10.1950     5.9060     3.6680 ha         1 0YV       0.091000
     43 H14          9.5560     8.0680     3.0890 ha         1 0YV       0.137000
     44 H15          3.6900    10.1110     1.6970 ha         1 0YV       0.123500
     45 H16          7.3670    12.3130     2.1600 ha         1 0YV       0.137000
     46 H17          3.5920    13.8840     3.6550 ha         1 0YV       0.105000
     47 H18          1.9420    11.5930     1.4310 hc         1 0YV       0.043950
     48 H19          1.7080    13.1630     2.1500 hc         1 0YV       0.043950
     49 H20          1.5310    10.5400     3.2520 hx         1 0YV       0.077700
     50 H21          1.9220    11.9330     4.2790 hx         1 0YV       0.077700
     51 H22         -0.1810    13.1210     3.4650 hn         1 0YV       0.244300
     52 H23         -0.4750    12.0010     2.3110 hn         1 0YV       0.244300
     53 HAA3        -0.3340     0.9100    -0.2510 hn         1 0YV       0.244300
     54 HAB3        -0.6390    11.8160     4.0380 hn         1 0YV       0.244300
@<TRIPOS>BOND
     1     1     2 1   
     2     1    31 1   
     3     1    32 1   
     4     1    53 1   
     5     2     3 1   
     6     2    33 1   
     7     2    34 1   
     8     3     4 1   
     9     3    35 1   
    10     3    36 1   
    11     4     5 ar  
    12     4     6 ar  
    13     5    10 ar  
    14     5    37 1   
    15     6     7 ar  
    16     6    38 1   
    17     7     8 1   
    18     7     9 ar  
    19     9    10 ar  
    20     9    39 1   
    21    10    11 1   
    22    11    12 3   
    23    12    13 1   
    24    13    14 ar  
    25    13    15 ar  
    26    14    18 ar  
    27    14    40 1   
    28    15    16 ar  
    29    15    41 1   
    30    16    17 ar  
    31    16    42 1   
    32    17    18 ar  
    33    17    43 1   
    34    18    19 1   
    35    19    20 3   
    36    20    21 1   
    37    21    22 ar  
    38    21    23 ar  
    39    22    27 ar  
    40    22    44 1   
    41    23    24 ar  
    42    23    45 1   
    43    24    25 1   
    44    24    26 ar  
    45    26    27 ar  
    46    26    46 1   
    47    27    28 1   
    48    28    29 1   
    49    28    47 1   
    50    28    48 1   
    51    29    30 1   
    52    29    49 1   
    53    29    50 1   
    54    30    51 1   
    55    30    52 1   
    56    30    54 1   
@<TRIPOS>SUBSTRUCTURE
     1 0YV         1 TEMP              0 ****  ****    0 ROOT
