@<TRIPOS>MOLECULE
0YV
   54    56     1     0     0
SMALL
bcc


@<TRIPOS>ATOM
      1 NAA          2.5760    -3.3550    -2.6750 nz         1 0YV      -0.839600
      2 CAS          3.0120    -3.3080    -1.2470 c3         1 0YV       0.100800
      3 CAU          2.2880    -2.2260    -0.4440 c3         1 0YV      -0.055600
      4 CBC          2.7080    -2.3150     0.9820 ca         1 0YV      -0.136300
      5 CAQ          3.5260    -1.3290     1.5380 ca         1 0YV      -0.090000
      6 CAN          2.2430    -3.3720     1.7740 ca         1 0YV      -0.122000
      7 CAW          2.6080    -3.4510     3.1200 ca         1 0YV      -0.021400
      8 BrC          1.9920    -4.8710     4.1670 br         1 0YV      -0.032600
      9 CAL          3.4270    -2.4680     3.6820 ca         1 0YV      -0.065000
     10 CBA          3.8870    -1.4000     2.8940 ca         1 0YV       0.061000
     11 CAG          4.6960    -0.4040     3.4680 cg         1 0YV      -0.143500
     12 CAE          5.3780     0.4430     3.9750 ch         1 0YV      -0.041500
     13 CAY          6.1750     1.4400     4.5670 ca         1 0YV       0.000500
     14 CAP          6.1990     1.5850     5.9630 ca         1 0YV      -0.066000
     15 CAJ          6.9460     2.2970     3.7640 ca         1 0YV      -0.079000
     16 CAI          7.7290     3.2870     4.3530 ca         1 0YV      -0.131000
     17 CAK          7.7540     3.4380     5.7380 ca         1 0YV      -0.079000
     18 CAZ          6.9880     2.5860     6.5510 ca         1 0YV       0.000500
     19 CAF          7.0050     2.7400     7.9490 cg         1 0YV      -0.041500
     20 CAH          7.0190     2.8780     9.1410 ch         1 0YV      -0.143500
     21 CBB          7.0130     3.0350    10.5370 ca         1 0YV       0.061000
     22 CAR          7.3890     4.2590    11.1150 ca         1 0YV      -0.090000
     23 CAM          6.6160     1.9700    11.3630 ca         1 0YV      -0.065000
     24 CAX          6.5830     2.1360    12.7500 ca         1 0YV      -0.021400
     25 BrD          6.0510     0.7250    13.8530 br         1 0YV      -0.032600
     26 CAO          6.9390     3.3620    13.3170 ca         1 0YV      -0.122000
     27 CBD          7.3550     4.4210    12.5020 ca         1 0YV      -0.136300
     28 CAV          7.6980     5.7440    13.0920 c3         1 0YV      -0.055600
     29 CAT          8.5560     5.6460    14.3490 c3         1 0YV       0.100800
     30 NAB          9.7080     4.7110    14.1840 nz         1 0YV      -0.839600
     31 H1           1.5700    -3.5460    -2.7310 hn         1 0YV       0.463633
     32 H2           3.0840    -4.0930    -3.1730 hn         1 0YV       0.463633
     33 H4           2.8100    -4.3220    -0.7920 hx         1 0YV       0.116450
     34 H5           4.1250    -3.1200    -1.2330 hx         1 0YV       0.116450
     35 H6           2.5300    -1.2100    -0.8570 hc         1 0YV       0.087700
     36 H7           1.1750    -2.3680    -0.5120 hc         1 0YV       0.087700
     37 H8           3.8830    -0.4870     0.9260 ha         1 0YV       0.151000
     38 H9           1.5780    -4.1330     1.3360 ha         1 0YV       0.142500
     39 H10          3.7150    -2.5200     4.7460 ha         1 0YV       0.172500
     40 H11          5.5960     0.9160     6.5960 ha         1 0YV       0.151000
     41 H12          6.9300     2.1860     2.6690 ha         1 0YV       0.146500
     42 H13          8.3320     3.9570     3.7200 ha         1 0YV       0.152000
     43 H14          8.3730     4.2240     6.1960 ha         1 0YV       0.146500
     44 H15          7.6900     5.0960    10.4630 ha         1 0YV       0.151000
     45 H16          6.3230     1.0090    10.9060 ha         1 0YV       0.172500
     46 H17          6.8470     3.5070    14.4060 ha         1 0YV       0.142500
     47 H18          8.2150     6.3880    12.3290 hc         1 0YV       0.087700
     48 H19          6.7490     6.2790    13.3850 hc         1 0YV       0.087700
     49 H20          7.9380     5.2700    15.2160 hx         1 0YV       0.116450
     50 H21          8.9660     6.6640    14.6130 hx         1 0YV       0.116450
     51 H22         10.3400     5.0530    13.4540 hn         1 0YV       0.463633
     52 H23          9.3540     3.7860    13.9010 hn         1 0YV       0.463633
     53 HAA3         2.7620    -2.4560    -3.1310 hn         1 0YV       0.463633
     54 HAB3        10.2250     4.6240    15.0640 hn         1 0YV       0.463633
@<TRIPOS>BOND
     1     1     2 1   
     2     1    31 1   
     3     1    32 1   
     4     1    53 1   
     5     2     3 1   
     6     2    33 1   
     7     2    34 1   
     8     3     4 1   
     9     3    35 1   
    10     3    36 1   
    11     4     5 ar  
    12     4     6 ar  
    13     5    10 ar  
    14     5    37 1   
    15     6     7 ar  
    16     6    38 1   
    17     7     8 1   
    18     7     9 ar  
    19     9    10 ar  
    20     9    39 1   
    21    10    11 1   
    22    11    12 3   
    23    12    13 1   
    24    13    14 ar  
    25    13    15 ar  
    26    14    18 ar  
    27    14    40 1   
    28    15    16 ar  
    29    15    41 1   
    30    16    17 ar  
    31    16    42 1   
    32    17    18 ar  
    33    17    43 1   
    34    18    19 1   
    35    19    20 3   
    36    20    21 1   
    37    21    22 ar  
    38    21    23 ar  
    39    22    27 ar  
    40    22    44 1   
    41    23    24 ar  
    42    23    45 1   
    43    24    25 1   
    44    24    26 ar  
    45    26    27 ar  
    46    26    46 1   
    47    27    28 1   
    48    28    29 1   
    49    28    47 1   
    50    28    48 1   
    51    29    30 1   
    52    29    49 1   
    53    29    50 1   
    54    30    51 1   
    55    30    52 1   
    56    30    54 1   
@<TRIPOS>SUBSTRUCTURE
     1 0YV         1 TEMP              0 ****  ****    0 ROOT
