@<TRIPOS>MOLECULE
molecule
   61    62     1     0     0
SMALL
bcc


@<TRIPOS>ATOM
      1 OAB          0.0000     0.0000     0.0000 o          1 0YW      -0.827300
      2 CAY          1.2150     0.0000     0.0000 c          1 0YW       0.895200
      3 OAE          1.8880     0.0000     1.1680 o          1 0YW      -0.827300
      4 CBE          1.9530    -0.0060    -1.2760 ca         1 0YW      -0.155600
      5 CAM          3.3470     0.0930    -1.2830 ca         1 0YW      -0.014000
      6 CBC          4.0300     0.0860    -2.4790 ca         1 0YW      -0.209200
      7 NBF          5.5060     0.1910    -2.4840 no         1 0YW       0.301200
      8 OAF          6.1140     0.1860    -3.5400 o          1 0YW      -0.238000
      9 OAD          6.1140     0.2820    -1.4330 o          1 0YW      -0.238000
     10 CAJ          3.3420    -0.0170    -3.6780 ca         1 0YW      -0.074000
     11 CAK          1.9660    -0.1140    -3.6870 ca         1 0YW      -0.171000
     12 CBD          1.2590    -0.1160    -2.4910 ca         1 0YW       0.126600
     13 NAW         -0.1280    -0.2210    -2.4980 ns         1 0YW      -0.450100
     14 CAZ         -0.7420    -0.9780    -3.4280 c          1 0YW       0.667700
     15 OAC         -0.0820    -1.6460    -4.2010 o          1 0YW      -0.619100
     16 CBB         -2.2180    -0.9980    -3.5090 ca         1 0YW      -0.102600
     17 CAL         -2.8560    -1.7860    -4.4680 ca         1 0YW      -0.104000
     18 CAI         -2.9780    -0.2320    -2.6240 ca         1 0YW      -0.127000
     19 CAG         -4.3550    -0.2530    -2.7020 ca         1 0YW      -0.105000
     20 CAH         -4.9860    -1.0300    -3.6560 ca         1 0YW      -0.209000
     21 CBA         -4.2390    -1.7990    -4.5380 ca         1 0YW       0.120100
     22 OAX         -4.8640    -2.5650    -5.4700 os         1 0YW      -0.332900
     23 CAV         -6.2930    -2.5310    -5.4850 c3         1 0YW       0.140400
     24 CAU         -6.8140    -3.4490    -6.5930 c3         1 0YW      -0.082400
     25 CAT         -8.3430    -3.4120    -6.6090 c3         1 0YW      -0.080400
     26 CAS         -8.8640    -4.3300    -7.7170 c3         1 0YW      -0.079400
     27 CAR        -10.3930    -4.2930    -7.7330 c3         1 0YW      -0.082400
     28 CAQ        -10.9140    -5.2120    -8.8410 c3         1 0YW      -0.081400
     29 CAP        -12.4430    -5.1750    -8.8570 c3         1 0YW      -0.082400
     30 CAO        -12.9630    -6.0930    -9.9640 c3         1 0YW      -0.081400
     31 CAN        -14.4930    -6.0560    -9.9810 c3         1 0YW      -0.084400
     32 CAA        -15.0130    -6.9740   -11.0890 c3         1 0YW      -0.092100
     33 H2           3.8850     0.2340    -0.3530 ha         1 0YW       0.189000
     34 H3           3.8890    -0.0180    -4.6130 ha         1 0YW       0.145000
     35 H4           1.4360    -0.1970    -4.6290 ha         1 0YW       0.156000
     36 H5          -0.6610     0.1770    -1.7490 hn         1 0YW       0.380500
     37 H6          -2.2720    -2.3850    -5.1560 ha         1 0YW       0.165000
     38 H7          -2.4870     0.3780    -1.8760 ha         1 0YW       0.156000
     39 H8          -4.9440     0.3430    -2.0160 ha         1 0YW       0.131000
     40 H9          -6.0680    -1.0420    -3.7120 ha         1 0YW       0.126000
     41 H10         -6.6280    -1.5170    -5.6690 h1         1 0YW       0.032700
     42 H11         -6.6720    -2.8690    -4.5280 h1         1 0YW       0.032700
     43 H12         -6.4790    -4.4630    -6.4090 hc         1 0YW       0.055200
     44 H13         -6.4340    -3.1120    -7.5500 hc         1 0YW       0.055200
     45 H14         -8.6770    -2.3980    -6.7930 hc         1 0YW       0.041700
     46 H15         -8.7220    -3.7500    -5.6520 hc         1 0YW       0.041700
     47 H16         -8.4850    -3.9930    -8.6740 hc         1 0YW       0.043200
     48 H17         -8.5290    -5.3440    -7.5330 hc         1 0YW       0.043200
     49 H18        -10.7730    -4.6310    -6.7760 hc         1 0YW       0.041200
     50 H19        -10.7280    -3.2800    -7.9170 hc         1 0YW       0.041200
     51 H20        -10.5340    -4.8740    -9.7980 hc         1 0YW       0.041700
     52 H21        -10.5790    -6.2250    -8.6570 hc         1 0YW       0.041700
     53 H22        -12.8220    -5.5120    -7.9000 hc         1 0YW       0.040700
     54 H23        -12.7780    -4.1610    -9.0410 hc         1 0YW       0.040700
     55 H24        -12.5840    -5.7550   -10.9210 hc         1 0YW       0.041200
     56 H25        -12.6280    -7.1060    -9.7800 hc         1 0YW       0.041200
     57 H26        -14.8280    -5.0420   -10.1650 hc         1 0YW       0.039700
     58 H27        -14.8730    -6.3930    -9.0240 hc         1 0YW       0.039700
     59 H28        -14.6340    -6.6360   -12.0450 hc         1 0YW       0.031700
     60 H29        -16.0960    -6.9480   -11.1000 hc         1 0YW       0.031700
     61 H30        -14.6780    -7.9870   -10.9050 hc         1 0YW       0.031700
@<TRIPOS>BOND
     1     8     7 1
     2     7     9 1
     3     7     6 1
     4     6     5 ar
     5     6    10 ar
     6     5     4 ar
     7    10    11 ar
     8     1     2 1
     9     4     2 1
    10     4    12 ar
    11    11    12 ar
    12     2     3 1
    13    12    13 1
    14    15    14 2
    15    13    14 1
    16    14    16 1
    17    16    18 ar
    18    16    17 ar
    19    18    19 ar
    20    17    21 ar
    21    19    20 ar
    22    21    20 ar
    23    21    22 1
    24    22    23 1
    25    25    24 1
    26    25    26 1
    27    31    32 1
    28    31    30 1
    29    24    23 1
    30    27    28 1
    31    27    26 1
    32    28    29 1
    33    29    30 1
    34     5    33 1
    35    10    34 1
    36    11    35 1
    37    13    36 1
    38    17    37 1
    39    18    38 1
    40    19    39 1
    41    20    40 1
    42    23    41 1
    43    23    42 1
    44    24    43 1
    45    24    44 1
    46    25    45 1
    47    25    46 1
    48    26    47 1
    49    26    48 1
    50    27    49 1
    51    27    50 1
    52    28    51 1
    53    28    52 1
    54    29    53 1
    55    29    54 1
    56    30    55 1
    57    30    56 1
    58    31    57 1
    59    31    58 1
    60    32    59 1
    61    32    60 1
    62    32    61 1
@<TRIPOS>SUBSTRUCTURE
     1 0YW         1 TEMP              0 ****  ****    0 ROOT
