@<TRIPOS>MOLECULE
0YW
   61    62     1     0     0
SMALL
bcc


@<TRIPOS>ATOM
      1 OAB          0.6320     4.7410     3.5990 o          1 0YW      -0.830300
      2 CAY          1.5660     4.2210     2.9330 c          1 0YW       0.919200
      3 OAE          2.7820     4.2960     3.2990 o          1 0YW      -0.830300
      4 CBE          1.1990     3.4560     1.6680 ca         1 0YW      -0.193600
      5 CAM         -0.1580     3.2140     1.4590 ca         1 0YW      -0.017000
      6 CBC         -0.5890     2.4660     0.3530 ca         1 0YW      -0.233200
      7 NBF         -2.0280     2.2150     0.1390 no         1 0YW       0.319200
      8 OAF         -2.8360     2.6530     0.9170 o          1 0YW      -0.241000
      9 OAD         -2.3800     1.5710    -0.8200 o          1 0YW      -0.241000
     10 CAJ          0.3460     1.9410    -0.5570 ca         1 0YW      -0.061000
     11 CAK          1.6940     2.1870    -0.3690 ca         1 0YW      -0.192000
     12 CBD          2.1470     2.9600     0.7300 ca         1 0YW       0.131600
     13 NAW          3.5020     3.2830     0.8740 ns         1 0YW      -0.450100
     14 CAZ          4.5710     2.4470     0.5700 c          1 0YW       0.672700
     15 OAC          4.4950     1.5000    -0.2390 o          1 0YW      -0.611100
     16 CBB          5.8700     2.7960     1.2280 ca         1 0YW      -0.110600
     17 CAL          5.9010     3.2660     2.5460 ca         1 0YW      -0.169000
     18 CAI          7.0530     2.6280     0.5040 ca         1 0YW      -0.124000
     19 CAG          8.2760     2.9500     1.0920 ca         1 0YW      -0.124000
     20 CAH          8.3300     3.4420     2.3910 ca         1 0YW      -0.152000
     21 CBA          7.1350     3.6040     3.1180 ca         1 0YW       0.123100
     22 OAX          7.2980     4.1170     4.3870 os         1 0YW      -0.344900
     23 CAV          6.1130     4.3830     5.1490 c3         1 0YW       0.118400
     24 CAU          5.6360     3.1340     5.8720 c3         1 0YW      -0.101400
     25 CAT          4.1300     3.1000     6.0080 c3         1 0YW      -0.100400
     26 CAS          3.5880     4.2160     6.8770 c3         1 0YW      -0.061400
     27 CAR          2.1000     4.3790     6.6500 c3         1 0YW      -0.105400
     28 CAQ          1.5390     5.5740     7.3870 c3         1 0YW      -0.061400
     29 CAP          0.0920     5.7980     7.0000 c3         1 0YW      -0.092400
     30 CAO         -0.4530     7.0730     7.6060 c3         1 0YW      -0.072400
     31 CAN         -1.9040     7.2840     7.2290 c3         1 0YW      -0.083400
     32 CAA         -2.4510     8.5600     7.8140 c3         1 0YW      -0.089100
     33 H2          -0.8810     3.6230     2.1930 ha         1 0YW       0.194000
     34 H3           0.0080     1.3400    -1.4170 ha         1 0YW       0.151000
     35 H4           2.4240     1.7650    -1.0790 ha         1 0YW       0.165000
     36 H5           3.6760     3.9810     1.5890 hn         1 0YW       0.369500
     37 H6           4.9670     3.3660     3.1330 ha         1 0YW       0.196000
     38 H7           7.0070     2.2340    -0.5230 ha         1 0YW       0.146000
     39 H8           9.2070     2.8160     0.5220 ha         1 0YW       0.125000
     40 H9           9.2870     3.7090     2.8610 ha         1 0YW       0.139000
     41 H10          5.3060     4.8260     4.5070 h1         1 0YW       0.072200
     42 H11          6.4690     5.1600     5.8810 h1         1 0YW       0.072200
     43 H12          5.9720     2.2310     5.2960 hc         1 0YW       0.038700
     44 H13          6.1170     3.0820     6.8830 hc         1 0YW       0.038700
     45 H14          3.6620     3.1790     4.9840 hc         1 0YW       0.066200
     46 H15          3.8260     2.1120     6.4410 hc         1 0YW       0.066200
     47 H16          3.7980     4.0030     7.9570 hc         1 0YW       0.020200
     48 H17          4.1070     5.1780     6.6220 hc         1 0YW       0.020200
     49 H18          1.5660     3.4490     6.9790 hc         1 0YW       0.075200
     50 H19          1.9050     4.5020     5.5410 hc         1 0YW       0.075200
     51 H20          2.1390     6.4870     7.1300 hc         1 0YW       0.019700
     52 H21          1.6230     5.4240     8.4950 hc         1 0YW       0.019700
     53 H22         -0.5250     4.9260     7.3420 hc         1 0YW       0.062700
     54 H23          0.0130     5.8370     5.8780 hc         1 0YW       0.062700
     55 H24          0.1560     7.9460     7.2520 hc         1 0YW       0.026700
     56 H25         -0.3560     7.0350     8.7230 hc         1 0YW       0.026700
     57 H26         -1.9950     7.3090     6.1110 hc         1 0YW       0.043700
     58 H27         -2.5130     6.4130     7.5890 hc         1 0YW       0.043700
     59 H28         -2.3860     8.5440     8.9290 hc         1 0YW       0.024033
     60 H29         -1.8730     9.4420     7.4440 hc         1 0YW       0.024033
     61 H30         -3.5210     8.6940     7.5250 hc         1 0YW       0.024033
@<TRIPOS>BOND
     1     1     2 1   
     2     2     3 1   
     3     2     4 1   
     4     4     5 ar  
     5     4    12 ar  
     6     5     6 ar  
     7     5    33 1   
     8     6     7 1   
     9     6    10 ar  
    10     7     8 1   
    11     7     9 1   
    12    10    11 ar  
    13    10    34 1   
    14    11    12 ar  
    15    11    35 1   
    16    12    13 1   
    17    13    14 1   
    18    13    36 1   
    19    14    15 2   
    20    14    16 1   
    21    16    17 ar  
    22    16    18 ar  
    23    17    21 ar  
    24    17    37 1   
    25    18    19 ar  
    26    18    38 1   
    27    19    20 ar  
    28    19    39 1   
    29    20    21 ar  
    30    20    40 1   
    31    21    22 1   
    32    22    23 1   
    33    23    24 1   
    34    23    41 1   
    35    23    42 1   
    36    24    25 1   
    37    24    43 1   
    38    24    44 1   
    39    25    26 1   
    40    25    45 1   
    41    25    46 1   
    42    26    27 1   
    43    26    47 1   
    44    26    48 1   
    45    27    28 1   
    46    27    49 1   
    47    27    50 1   
    48    28    29 1   
    49    28    51 1   
    50    28    52 1   
    51    29    30 1   
    52    29    53 1   
    53    29    54 1   
    54    30    31 1   
    55    30    55 1   
    56    30    56 1   
    57    31    32 1   
    58    31    57 1   
    59    31    58 1   
    60    32    59 1   
    61    32    60 1   
    62    32    61 1   
@<TRIPOS>SUBSTRUCTURE
     1 0YW         1 TEMP              0 ****  ****    0 ROOT
