@<TRIPOS>MOLECULE
0YX
   54    55     1     0     0
SMALL
bcc


@<TRIPOS>ATOM
      1 OAC         -2.4850     0.4170    -3.3690 o          1 0YX      -0.902500
      2 PBB         -1.7490     0.6200    -2.0680 p5         1 0YX       1.230000
      3 OAD         -2.5930     1.0900    -0.9270 o          1 0YX      -0.902500
      4 OAB         -0.3890     1.2320    -2.2020 o          1 0YX      -0.902500
      5 CBA         -1.3810    -1.3210    -1.6090 ca         1 0YX      -0.179500
      6 CAL         -2.5220    -1.6550    -0.8820 ca         1 0YX      -0.079000
      7 CAW         -2.7360    -2.9440    -0.3830 ca         1 0YX      -0.063900
      8 BrE         -4.3010    -3.3620     0.5980 br         1 0YX      -0.220100
      9 CAI         -1.7960    -3.9500    -0.6010 ca         1 0YX      -0.139000
     10 CAJ         -0.6470    -3.6530    -1.3210 ca         1 0YX      -0.210000
     11 CAZ         -0.4400    -2.3450    -1.8170 ca         1 0YX       0.173100
     12 OAV          0.7970    -2.2480    -2.4390 os         1 0YX      -0.364900
     13 CAT          1.0240    -1.1830    -3.3580 c3         1 0YX       0.125700
     14 CAX          0.6170    -1.5510    -4.7530 ca         1 0YX      -0.061300
     15 CAK         -0.6090    -1.0940    -5.2420 ca         1 0YX      -0.172000
     16 CAG          1.4700    -2.2970    -5.5750 ca         1 0YX      -0.172000
     17 CAF          1.1060    -2.5790    -6.8890 ca         1 0YX      -0.146000
     18 CAH         -0.1060    -2.1230    -7.4000 ca         1 0YX      -0.196000
     19 CAY         -0.9620    -1.3770    -6.5690 ca         1 0YX       0.120100
     20 OAU         -2.1200    -0.9440    -7.1870 os         1 0YX      -0.370900
     21 CAS         -3.1210    -0.3280    -6.3660 c3         1 0YX       0.121400
     22 CAR         -3.9270    -1.3660    -5.6060 c3         1 0YX      -0.112400
     23 CAQ         -5.3540    -0.9110    -5.3850 c3         1 0YX      -0.049400
     24 CAP         -5.4000     0.4250    -4.6750 c3         1 0YX      -0.122400
     25 CAO         -6.7230     0.6540    -3.9800 c3         1 0YX      -0.060400
     26 CAN         -6.6970     1.9460    -3.1910 c3         1 0YX      -0.089400
     27 CAM         -7.9940     2.1700    -2.4450 c3         1 0YX      -0.075400
     28 CAA         -7.9600     3.4490    -1.6490 c3         1 0YX      -0.090100
     29 H3          -3.2670    -0.8560    -0.6790 ha         1 0YX       0.192000
     30 H4          -1.9510    -4.9680    -0.2180 ha         1 0YX       0.094000
     31 H5           0.1090    -4.4260    -1.5060 ha         1 0YX       0.104000
     32 H6           0.5030    -0.2310    -3.0140 h1         1 0YX       0.100700
     33 H7           2.1400    -1.0480    -3.3120 h1         1 0YX       0.100700
     34 H8          -1.2830    -0.5130    -4.5510 ha         1 0YX       0.259000
     35 H9           2.4250    -2.6630    -5.1750 ha         1 0YX       0.108000
     36 H10          1.7770    -3.1670    -7.5320 ha         1 0YX       0.091000
     37 H11         -0.4010    -2.3330    -8.4350 ha         1 0YX       0.110000
     38 H12         -2.6780     0.4140    -5.6430 h1         1 0YX       0.076200
     39 H13         -3.7540     0.2020    -7.1300 h1         1 0YX       0.076200
     40 H14         -3.4290    -1.5160    -4.6050 hc         1 0YX       0.066200
     41 H15         -3.9220    -2.3380    -6.1620 hc         1 0YX       0.066200
     42 H16         -5.8830    -1.6860    -4.7700 hc         1 0YX       0.005200
     43 H17         -5.8960    -0.8440    -6.3660 hc         1 0YX       0.005200
     44 H18         -4.5490     0.4740    -3.9260 hc         1 0YX       0.092200
     45 H19         -5.2180     1.2470    -5.4160 hc         1 0YX       0.092200
     46 H20         -6.9340    -0.2000    -3.2830 hc         1 0YX       0.013200
     47 H21         -7.5580     0.6820    -4.7300 hc         1 0YX       0.013200
     48 H22         -6.5100     2.8070    -3.8850 hc         1 0YX       0.060700
     49 H23         -5.8380     1.9140    -2.4650 hc         1 0YX       0.060700
     50 H24         -8.8500     2.1990    -3.1710 hc         1 0YX       0.022200
     51 H25         -8.1780     1.3040    -1.7540 hc         1 0YX       0.022200
     52 H26         -8.9150     3.5890    -1.0870 hc         1 0YX       0.025033
     53 H27         -7.8150     4.3280    -2.3230 hc         1 0YX       0.025033
     54 H28         -7.1150     3.4280    -0.9180 hc         1 0YX       0.025033
@<TRIPOS>BOND
     1     1     2 1   
     2     2     3 1   
     3     2     4 1   
     4     2     5 1   
     5     5     6 ar  
     6     5    11 ar  
     7     6     7 ar  
     8     6    29 1   
     9     7     8 1   
    10     7     9 ar  
    11     9    10 ar  
    12     9    30 1   
    13    10    11 ar  
    14    10    31 1   
    15    11    12 1   
    16    12    13 1   
    17    13    14 1   
    18    13    32 1   
    19    13    33 1   
    20    14    15 ar  
    21    14    16 ar  
    22    15    19 ar  
    23    15    34 1   
    24    16    17 ar  
    25    16    35 1   
    26    17    18 ar  
    27    17    36 1   
    28    18    19 ar  
    29    18    37 1   
    30    19    20 1   
    31    20    21 1   
    32    21    22 1   
    33    21    38 1   
    34    21    39 1   
    35    22    23 1   
    36    22    40 1   
    37    22    41 1   
    38    23    24 1   
    39    23    42 1   
    40    23    43 1   
    41    24    25 1   
    42    24    44 1   
    43    24    45 1   
    44    25    26 1   
    45    25    46 1   
    46    25    47 1   
    47    26    27 1   
    48    26    48 1   
    49    26    49 1   
    50    27    28 1   
    51    27    50 1   
    52    27    51 1   
    53    28    52 1   
    54    28    53 1   
    55    28    54 1   
@<TRIPOS>SUBSTRUCTURE
     1 0YX         1 TEMP              0 ****  ****    0 ROOT
