@<TRIPOS>MOLECULE
molecule
   54    55     1     0     0
SMALL
bcc


@<TRIPOS>ATOM
      1 OAC          0.0000     0.0000     0.0000 o          1 0YX      -0.891167
      2 PBB          1.6090     0.0000     0.0000 p5         1 0YX       1.041000
      3 OAD          2.1450     0.0000     1.5190 o          1 0YX      -0.891167
      4 OAB          2.1030    -1.2080    -0.6970 o          1 0YX      -0.891167
      5 CBA          2.2140     1.4810    -0.8540 ca         1 0YX      -0.142500
      6 CAL          1.4680     2.0470    -1.8700 ca         1 0YX      -0.021000
      7 CAW          1.9300     3.1760    -2.5220 ca         1 0YX      -0.073900
      8 BrE          0.9060     3.9480    -3.9130 br         1 0YX      -0.211100
      9 CAI          3.1380     3.7430    -2.1570 ca         1 0YX      -0.114000
     10 CAJ          3.8860     3.1810    -1.1420 ca         1 0YX      -0.275000
     11 CAZ          3.4230     2.0520    -0.4830 ca         1 0YX       0.190100
     12 OAV          4.1590     1.4980     0.5170 os         1 0YX      -0.225900
     13 CAT          5.3990     2.1300     0.8380 c3         1 0YX       0.180700
     14 CAX          6.0690     1.3830     1.9610 ca         1 0YX      -0.014300
     15 CAK          6.9360     0.3440     1.6780 ca         1 0YX      -0.118000
     16 CAG          5.8200     1.7380     3.2740 ca         1 0YX      -0.116000
     17 CAF          6.4340     1.0540     4.3060 ca         1 0YX      -0.106000
     18 CAH          7.2970     0.0120     4.0290 ca         1 0YX      -0.227000
     19 CAY          7.5530    -0.3440     2.7130 ca         1 0YX       0.123100
     20 OAU          8.4020    -1.3690     2.4370 os         1 0YX      -0.333900
     21 CAS          8.9960    -2.0370     3.5520 c3         1 0YX       0.144400
     22 CAR          9.9140    -3.1520     3.0500 c3         1 0YX      -0.083400
     23 CAQ         10.5500    -3.8670     4.2430 c3         1 0YX      -0.080400
     24 CAP         11.4680    -4.9830     3.7400 c3         1 0YX      -0.080400
     25 CAO         12.1040    -5.6980     4.9340 c3         1 0YX      -0.082400
     26 CAN         13.0210    -6.8140     4.4300 c3         1 0YX      -0.081400
     27 CAM         13.6580    -7.5280     5.6240 c3         1 0YX      -0.084400
     28 CAA         14.5750    -8.6450     5.1210 c3         1 0YX      -0.092100
     29 H3           0.5240     1.6010    -2.1610 ha         1 0YX       0.168000
     30 H4           3.4990     4.6260    -2.6700 ha         1 0YX       0.093000
     31 H5           4.8310     3.6270    -0.8560 ha         1 0YX       0.096000
     32 H6           5.2140     3.1530     1.1440 h1         1 0YX       0.017200
     33 H7           6.0420     2.1250    -0.0340 h1         1 0YX       0.017200
     34 H8           7.1340     0.0680     0.6490 ha         1 0YX       0.148000
     35 H9           5.1430     2.5550     3.4930 ha         1 0YX       0.138000
     36 H10          6.2350     1.3330     5.3340 ha         1 0YX       0.112000
     37 H11          7.7780    -0.5230     4.8390 ha         1 0YX       0.110000
     38 H12          9.5740    -1.3270     4.1320 h1         1 0YX       0.029700
     39 H13          8.2180    -2.4620     4.1740 h1         1 0YX       0.029700
     40 H14          9.3360    -3.8620     2.4700 hc         1 0YX       0.054200
     41 H15         10.6920    -2.7270     2.4270 hc         1 0YX       0.054200
     42 H16          9.7730    -4.2930     4.8660 hc         1 0YX       0.039700
     43 H17         11.1290    -3.1580     4.8230 hc         1 0YX       0.039700
     44 H18         10.8890    -5.6920     3.1600 hc         1 0YX       0.042700
     45 H19         12.2460    -4.5570     3.1170 hc         1 0YX       0.042700
     46 H20         12.6830    -4.9880     5.5130 hc         1 0YX       0.039700
     47 H21         11.3260    -6.1230     5.5560 hc         1 0YX       0.039700
     48 H22         13.7990    -6.3890     3.8070 hc         1 0YX       0.041200
     49 H23         12.4430    -7.5240     3.8520 hc         1 0YX       0.041200
     50 H24         12.8800    -7.9530     6.2470 hc         1 0YX       0.038200
     51 H25         14.2360    -6.8180     6.2030 hc         1 0YX       0.038200
     52 H26         15.0260    -9.1500     5.9660 hc         1 0YX       0.029367
     53 H27         15.3530    -8.2200     4.4980 hc         1 0YX       0.029367
     54 H28         13.9960    -9.3540     4.5420 hc         1 0YX       0.029367
@<TRIPOS>BOND
     1    17    16 ar
     2    17    18 ar
     3    16    14 ar
     4    18    19 ar
     5    14    13 1
     6    14    15 ar
     7    22    21 1
     8    22    23 1
     9    21    20 1
    10    19    15 ar
    11    19    20 1
    12    13    12 1
    13    24    23 1
    14    24    25 1
    15    10     9 ar
    16    10    11 ar
    17    12    11 1
    18    27    26 1
    19    27    28 1
    20    25    26 1
    21     9     7 ar
    22    11     5 ar
    23     7     6 ar
    24     7     8 1
    25     5     6 ar
    26     5     2 1
    27     2     4 1
    28     2     1 1
    29     2     3 1
    30     6    29 1
    31     9    30 1
    32    10    31 1
    33    13    32 1
    34    13    33 1
    35    15    34 1
    36    16    35 1
    37    17    36 1
    38    18    37 1
    39    21    38 1
    40    21    39 1
    41    22    40 1
    42    22    41 1
    43    23    42 1
    44    23    43 1
    45    24    44 1
    46    24    45 1
    47    25    46 1
    48    25    47 1
    49    26    48 1
    50    26    49 1
    51    27    50 1
    52    27    51 1
    53    28    52 1
    54    28    53 1
    55    28    54 1
@<TRIPOS>SUBSTRUCTURE
     1 0YX         1 TEMP              0 ****  ****    0 ROOT
