@<TRIPOS>MOLECULE
0YY
   46    46     1     0     0
SMALL
bcc


@<TRIPOS>ATOM
      1 OAB          1.2490    -0.5210    -1.1030 o          1 0YY      -0.811800
      2 CAS          1.9360     0.5250    -0.9890 c          1 0YY       0.889800
      3 OAD          2.0580     1.2020     0.0750 o          1 0YY      -0.811800
      4 CAU          2.6830     1.0920    -2.1950 ce         1 0YY       0.071900
      5 OAE          3.2820     2.3120    -1.9630 oh         1 0YY      -0.550100
      6 CAF          2.8400     0.5860    -3.4340 cf         1 0YY      -0.359200
      7 CAT          2.3360    -0.6900    -3.9490 c          1 0YY       0.644900
      8 OAC          3.0230    -1.7180    -4.0000 o          1 0YY      -0.556100
      9 CAW          0.9840    -0.6530    -4.5740 ca         1 0YY      -0.167600
     10 CAJ         -0.1450    -0.3310    -3.8170 ca         1 0YY      -0.064500
     11 CAH         -1.4050    -0.2880    -4.4140 ca         1 0YY      -0.199000
     12 CAI          0.8470    -0.9490    -5.9360 ca         1 0YY      -0.064500
     13 CAG         -0.4000    -0.9010    -6.5500 ca         1 0YY      -0.199000
     14 CAV         -1.5280    -0.5680    -5.7790 ca         1 0YY       0.114100
     15 OAR         -2.7220    -0.5430    -6.4840 os         1 0YY      -0.344900
     16 CAQ         -3.8910    -0.2730    -5.7050 c3         1 0YY       0.130400
     17 CAP         -5.0610    -0.3490    -6.6720 c3         1 0YY      -0.085400
     18 CAO         -6.3700    -0.0260    -5.9850 c3         1 0YY      -0.076400
     19 CAN         -6.8730    -1.1730    -5.1330 c3         1 0YY      -0.081400
     20 CAM         -8.1830    -0.8510    -4.4450 c3         1 0YY      -0.078400
     21 CAL         -9.3660    -0.9360    -5.3860 c3         1 0YY      -0.078400
     22 CAK        -10.6770    -0.6220    -4.6950 c3         1 0YY      -0.079400
     23 CAA        -11.1640    -1.7560    -3.8290 c3         1 0YY      -0.092100
     24 H2           3.1250     2.5340    -1.0240 ho         1 0YY       0.448000
     25 H3           3.4290     1.1440    -4.1820 ha         1 0YY       0.131000
     26 H4          -0.0270    -0.1300    -2.7320 ha         1 0YY       0.168000
     27 H5          -2.2800    -0.0380    -3.8000 ha         1 0YY       0.131500
     28 H6           1.7350    -1.2270    -6.5230 ha         1 0YY       0.168000
     29 H7          -0.5190    -1.1240    -7.6180 ha         1 0YY       0.131500
     30 H8          -3.8110     0.7500    -5.2500 h1         1 0YY       0.039200
     31 H9          -3.9870    -1.0380    -4.8900 h1         1 0YY       0.039200
     32 H10         -4.8850     0.3770    -7.5080 hc         1 0YY       0.051700
     33 H11         -5.1010    -1.3740    -7.1250 hc         1 0YY       0.051700
     34 H12         -6.2470     0.8890    -5.3470 hc         1 0YY       0.039200
     35 H13         -7.1370     0.2170    -6.7680 hc         1 0YY       0.039200
     36 H14         -6.9950    -2.0880    -5.7710 hc         1 0YY       0.043700
     37 H15         -6.1030    -1.4150    -4.3530 hc         1 0YY       0.043700
     38 H16         -8.1310     0.1770    -3.9980 hc         1 0YY       0.040200
     39 H17         -8.3350    -1.5730    -3.5990 hc         1 0YY       0.040200
     40 H18         -9.2180    -0.2110    -6.2310 hc         1 0YY       0.038200
     41 H19         -9.4150    -1.9620    -5.8360 hc         1 0YY       0.038200
     42 H20        -10.5580     0.3030    -4.0700 hc         1 0YY       0.035700
     43 H21        -11.4530    -0.3970    -5.4740 hc         1 0YY       0.035700
     44 H22        -11.3050    -2.6830    -4.4360 hc         1 0YY       0.031700
     45 H23        -10.4310    -1.9780    -3.0160 hc         1 0YY       0.031700
     46 H24        -12.1420    -1.4910    -3.3590 hc         1 0YY       0.031700
@<TRIPOS>BOND
     1     1     2 1   
     2     2     3 1   
     3     2     4 1   
     4     4     5 1   
     5     4     6 2   
     6     5    24 1   
     7     6     7 1   
     8     6    25 1   
     9     7     8 2   
    10     7     9 1   
    11     9    10 ar  
    12     9    12 ar  
    13    10    11 ar  
    14    10    26 1   
    15    11    14 ar  
    16    11    27 1   
    17    12    13 ar  
    18    12    28 1   
    19    13    14 ar  
    20    13    29 1   
    21    14    15 1   
    22    15    16 1   
    23    16    17 1   
    24    16    30 1   
    25    16    31 1   
    26    17    18 1   
    27    17    32 1   
    28    17    33 1   
    29    18    19 1   
    30    18    34 1   
    31    18    35 1   
    32    19    20 1   
    33    19    36 1   
    34    19    37 1   
    35    20    21 1   
    36    20    38 1   
    37    20    39 1   
    38    21    22 1   
    39    21    40 1   
    40    21    41 1   
    41    22    23 1   
    42    22    42 1   
    43    22    43 1   
    44    23    44 1   
    45    23    45 1   
    46    23    46 1   
@<TRIPOS>SUBSTRUCTURE
     1 0YY         1 TEMP              0 ****  ****    0 ROOT
