@<TRIPOS>MOLECULE
molecule
   46    46     1     0     0
SMALL
bcc


@<TRIPOS>ATOM
      1 OAB          0.0000     0.0000     0.0000 o          1 0YY      -0.818800
      2 CAS          1.2150     0.0000     0.0000 c          1 0YY       0.849800
      3 OAD          1.8880     0.0000     1.1660 o          1 0YY      -0.818800
      4 CAU          1.9550    -0.0050    -1.2820 ce         1 0YY       0.140900
      5 OAE          3.3070    -0.0040    -1.2830 oh         1 0YY      -0.507100
      6 CAF          1.2780    -0.0100    -2.4540 cf         1 0YY      -0.356200
      7 CAT          2.0000     0.1620    -3.7190 c          1 0YY       0.575900
      8 OAC          3.1910     0.4100    -3.7110 o          1 0YY      -0.552100
      9 CAW          1.2820     0.0320    -5.0030 ca         1 0YY      -0.184600
     10 CAJ          1.9690     0.1950    -6.2100 ca         1 0YY      -0.050500
     11 CAH          1.2960     0.0730    -7.4050 ca         1 0YY      -0.212000
     12 CAI         -0.0850    -0.2600    -5.0150 ca         1 0YY      -0.050500
     13 CAG         -0.7510    -0.3800    -6.2140 ca         1 0YY      -0.212000
     14 CAV         -0.0650    -0.2120    -7.4120 ca         1 0YY       0.143100
     15 OAR         -0.7250    -0.3300    -8.5920 os         1 0YY      -0.336900
     16 CAQ          0.0400    -0.1450    -9.7840 c3         1 0YY       0.140400
     17 CAP         -0.8680    -0.3160   -11.0040 c3         1 0YY      -0.083400
     18 CAO         -0.0490    -0.1180   -12.2810 c3         1 0YY      -0.080400
     19 CAN         -0.9560    -0.2890   -13.5010 c3         1 0YY      -0.080400
     20 CAM         -0.1380    -0.0910   -14.7770 c3         1 0YY      -0.082400
     21 CAL         -1.0460    -0.2610   -15.9970 c3         1 0YY      -0.081400
     22 CAK         -0.2260    -0.0630   -17.2750 c3         1 0YY      -0.084400
     23 CAA         -1.1340    -0.2340   -18.4940 c3         1 0YY      -0.092100
     24 H2           3.6230    -0.7930    -0.8740 ho         1 0YY       0.426000
     25 H3           0.1950    -0.0100    -2.4500 ha         1 0YY       0.155000
     26 H4           3.0290     0.4170    -6.2050 ha         1 0YY       0.153500
     27 H5           1.8270     0.2020    -8.3400 ha         1 0YY       0.131000
     28 H6          -0.6200    -0.3910    -4.0820 ha         1 0YY       0.153500
     29 H7          -1.8110    -0.6040    -6.2240 ha         1 0YY       0.131000
     30 H8           0.4670     0.8510    -9.7880 h1         1 0YY       0.034700
     31 H9           0.8360    -0.8790    -9.8200 h1         1 0YY       0.034700
     32 H10         -1.6630     0.4190   -10.9670 hc         1 0YY       0.053700
     33 H11         -1.2950    -1.3110   -10.9990 hc         1 0YY       0.053700
     34 H12          0.3780     0.8770   -12.2860 hc         1 0YY       0.042200
     35 H13          0.7460    -0.8530   -12.3170 hc         1 0YY       0.042200
     36 H14         -1.7520     0.4450   -13.4650 hc         1 0YY       0.042700
     37 H15         -1.3830    -1.2850   -13.4970 hc         1 0YY       0.042700
     38 H16          0.6580    -0.8250   -14.8140 hc         1 0YY       0.040700
     39 H17          0.2890     0.9050   -14.7820 hc         1 0YY       0.040700
     40 H18         -1.8420     0.4730   -15.9610 hc         1 0YY       0.040700
     41 H19         -1.4730    -1.2570   -15.9930 hc         1 0YY       0.040700
     42 H20          0.2010     0.9330   -17.2790 hc         1 0YY       0.039700
     43 H21          0.5700    -0.7970   -17.3110 hc         1 0YY       0.039700
     44 H22         -0.5550    -0.0930   -19.3990 hc         1 0YY       0.031700
     45 H23         -1.5610    -1.2300   -18.4900 hc         1 0YY       0.031700
     46 H24         -1.9300     0.5000   -18.4580 hc         1 0YY       0.031700
@<TRIPOS>BOND
     1    17    18 1
     2    17    16 1
     3    18    19 1
     4    22    21 1
     5    22    23 1
     6    21    20 1
     7    15    16 1
     8    15    14 1
     9    19    20 1
    10    14    13 ar
    11    14    11 ar
    12    13    12 ar
    13    11    10 ar
    14    12     9 ar
    15    10     9 ar
    16     9     7 1
    17     7     8 2
    18     7     6 1
    19     6     4 2
    20     4     5 1
    21     4     2 1
    22     1     2 1
    23     2     3 1
    24     5    24 1
    25     6    25 1
    26    10    26 1
    27    11    27 1
    28    12    28 1
    29    13    29 1
    30    16    30 1
    31    16    31 1
    32    17    32 1
    33    17    33 1
    34    18    34 1
    35    18    35 1
    36    19    36 1
    37    19    37 1
    38    20    38 1
    39    20    39 1
    40    21    40 1
    41    21    41 1
    42    22    42 1
    43    22    43 1
    44    23    44 1
    45    23    45 1
    46    23    46 1
@<TRIPOS>SUBSTRUCTURE
     1 0YY         1 TEMP              0 ****  ****    0 ROOT
