@<TRIPOS>MOLECULE
molecule
   52    52     1     0     0
SMALL
bcc


@<TRIPOS>ATOM
      1 OAB          0.0000     0.0000     0.0000 o          1 0YZ      -0.818300
      2 CAU          1.2130     0.0000     0.0000 c          1 0YZ       0.849800
      3 OAD          1.8870     0.0000     1.1670 o          1 0YZ      -0.818300
      4 CAW          1.9550    -0.0060    -1.2820 ce         1 0YZ       0.141900
      5 OAE          3.3080    -0.0060    -1.2810 oh         1 0YZ      -0.506100
      6 CAF          1.2780    -0.0120    -2.4540 cf         1 0YZ      -0.355200
      7 CAV          2.0010     0.1590    -3.7190 c          1 0YZ       0.571900
      8 OAC          3.1920     0.4070    -3.7090 o          1 0YZ      -0.542100
      9 CAY          1.2830     0.0280    -5.0050 ca         1 0YZ      -0.111600
     10 CAJ          1.9680     0.1900    -6.2090 ca         1 0YZ      -0.114000
     11 CAI         -0.0840    -0.2620    -5.0170 ca         1 0YZ      -0.124000
     12 CAG         -0.7510    -0.3840    -6.2200 ca         1 0YZ      -0.115000
     13 CAH         -0.0710    -0.2180    -7.4120 ca         1 0YZ      -0.217000
     14 CAX          1.2890     0.0660    -7.4090 ca         1 0YZ       0.115100
     15 OAT          1.9520     0.2270    -8.5840 os         1 0YZ      -0.334900
     16 CAS          1.1870     0.0910    -9.7840 c3         1 0YZ       0.141400
     17 CAR          2.0960     0.3040   -10.9960 c3         1 0YZ      -0.083400
     18 CAQ          1.2790     0.1580   -12.2800 c3         1 0YZ      -0.080400
     19 CAP          2.1890     0.3710   -13.4920 c3         1 0YZ      -0.079400
     20 CAO          1.3700     0.2250   -14.7770 c3         1 0YZ      -0.082400
     21 CAN          2.2800     0.4380   -15.9880 c3         1 0YZ      -0.081400
     22 CAM          1.4610     0.2910   -17.2720 c3         1 0YZ      -0.082400
     23 CAL          2.3710     0.5050   -18.4830 c3         1 0YZ      -0.081400
     24 CAK          1.5530     0.3590   -19.7680 c3         1 0YZ      -0.084400
     25 CAA          2.4620     0.5730   -20.9800 c3         1 0YZ      -0.092100
     26 H2           3.6220    -0.7950    -0.8710 ho         1 0YZ       0.427000
     27 H3           0.1950    -0.0120    -2.4510 ha         1 0YZ       0.156000
     28 H4           3.0280     0.4110    -6.2060 ha         1 0YZ       0.161000
     29 H5          -0.6190    -0.3920    -4.0850 ha         1 0YZ       0.154000
     30 H6          -1.8110    -0.6070    -6.2290 ha         1 0YZ       0.123000
     31 H7          -0.6000    -0.3140    -8.3530 ha         1 0YZ       0.121000
     32 H8           0.3950     0.8300    -9.7930 h1         1 0YZ       0.031700
     33 H9           0.7560    -0.9020    -9.8270 h1         1 0YZ       0.031700
     34 H10          2.5280     1.2970   -10.9540 hc         1 0YZ       0.054700
     35 H11          2.8890    -0.4350   -10.9870 hc         1 0YZ       0.054700
     36 H12          0.4860     0.8960   -12.2890 hc         1 0YZ       0.041200
     37 H13          0.8470    -0.8350   -12.3220 hc         1 0YZ       0.041200
     38 H14          2.6200     1.3640   -13.4500 hc         1 0YZ       0.043700
     39 H15          2.9810    -0.3680   -13.4830 hc         1 0YZ       0.043700
     40 H16          0.9390    -0.7690   -14.8190 hc         1 0YZ       0.040700
     41 H17          0.5770     0.9630   -14.7860 hc         1 0YZ       0.040700
     42 H18          2.7100     1.4320   -15.9450 hc         1 0YZ       0.041700
     43 H19          3.0730    -0.2990   -15.9780 hc         1 0YZ       0.041700
     44 H20          0.6680     1.0290   -17.2820 hc         1 0YZ       0.040700
     45 H21          1.0310    -0.7020   -17.3140 hc         1 0YZ       0.040700
     46 H22          2.8010     1.4980   -18.4400 hc         1 0YZ       0.040700
     47 H23          3.1640    -0.2330   -18.4740 hc         1 0YZ       0.040700
     48 H24          0.7600     1.0970   -19.7770 hc         1 0YZ       0.039700
     49 H25          1.1220    -0.6340   -19.8100 hc         1 0YZ       0.039700
     50 H26          1.8820     0.4690   -21.8890 hc         1 0YZ       0.031700
     51 H27          2.8920     1.5660   -20.9380 hc         1 0YZ       0.031700
     52 H28          3.2550    -0.1650   -20.9710 hc         1 0YZ       0.031700
@<TRIPOS>BOND
     1    25    24 1   
     2    24    23 1   
     3    23    22 1   
     4    22    21 1   
     5    21    20 1   
     6    20    19 1   
     7    13    12 ar  
     8    13    14 ar  
     9    12    11 ar  
    10    19    18 1   
    11    18    17 1   
    12    15    14 1   
    13    15    16 1   
    14    14    10 ar  
    15    11     9 ar  
    16    17    16 1   
    17    10     9 ar  
    18     9     7 1   
    19     7     8 2   
    20     7     6 1   
    21     6     4 2   
    22     4     5 1   
    23     4     2 1   
    24     1     2 1   
    25     2     3 1   
    26     5    26 1   
    27     6    27 1   
    28    10    28 1   
    29    11    29 1   
    30    12    30 1   
    31    13    31 1   
    32    16    32 1   
    33    16    33 1   
    34    17    34 1   
    35    17    35 1   
    36    18    36 1   
    37    18    37 1   
    38    19    38 1   
    39    19    39 1   
    40    20    40 1   
    41    20    41 1   
    42    21    42 1   
    43    21    43 1   
    44    22    44 1   
    45    22    45 1   
    46    23    46 1   
    47    23    47 1   
    48    24    48 1   
    49    24    49 1   
    50    25    50 1   
    51    25    51 1   
    52    25    52 1   
@<TRIPOS>SUBSTRUCTURE
     1 0YZ         1 TEMP              0 ****  ****    0 ROOT
