@<TRIPOS>MOLECULE
0YZ
   52    52     1     0     0
SMALL
bcc


@<TRIPOS>ATOM
      1 OAB          0.4360    -1.6030    -0.2040 o          1 0YZ      -0.804300
      2 CAU          1.6350    -1.8910    -0.4320 c          1 0YZ       0.882800
      3 OAD          2.4190    -2.5050     0.3480 o          1 0YZ      -0.804300
      4 CAW          2.2610    -1.4940    -1.7790 ce         1 0YZ       0.117900
      5 OAE          3.5450    -1.8930    -1.9670 oh         1 0YZ      -0.499100
      6 CAF          1.5830    -0.8140    -2.7390 cf         1 0YZ      -0.390200
      7 CAV          2.0680    -0.4190    -4.0410 c          1 0YZ       0.591900
      8 OAC          3.2490    -0.4690    -4.4280 o          1 0YZ      -0.578100
      9 CAY          1.0220     0.1050    -4.9760 ca         1 0YZ      -0.104600
     10 CAJ         -0.2710    -0.4270    -4.9630 ca         1 0YZ      -0.165000
     11 CAI          1.3500     1.1250    -5.8750 ca         1 0YZ      -0.129000
     12 CAG          0.3860     1.6250    -6.7500 ca         1 0YZ      -0.123000
     13 CAH         -0.9080     1.1160    -6.7450 ca         1 0YZ      -0.161000
     14 CAX         -1.2300     0.0830    -5.8460 ca         1 0YZ       0.106100
     15 OAT         -2.5360    -0.3710    -5.9290 os         1 0YZ      -0.345900
     16 CAS         -2.9330    -1.2940    -4.9050 c3         1 0YZ       0.125400
     17 CAR         -4.4210    -1.5320    -5.0940 c3         1 0YZ      -0.080400
     18 CAQ         -4.7020    -2.4060    -6.2960 c3         1 0YZ      -0.080400
     19 CAP         -6.1890    -2.6040    -6.4970 c3         1 0YZ      -0.078400
     20 CAO         -6.4680    -3.4870    -7.6940 c3         1 0YZ      -0.079400
     21 CAN         -7.9550    -3.6830    -7.8990 c3         1 0YZ      -0.078400
     22 CAM         -8.2340    -4.5650    -9.0960 c3         1 0YZ      -0.079400
     23 CAL         -9.7210    -4.7610    -9.3010 c3         1 0YZ      -0.079400
     24 CAK        -10.0010    -5.6430   -10.4990 c3         1 0YZ      -0.080400
     25 CAA        -11.4810    -5.8410   -10.7070 c3         1 0YZ      -0.092100
     26 H2           3.8220    -2.3620    -1.1510 ho         1 0YZ       0.447000
     27 H3           0.5480    -0.5320    -2.4790 ha         1 0YZ       0.155000
     28 H4          -0.5140    -1.2360    -4.2580 ha         1 0YZ       0.159000
     29 H5           2.3780     1.5180    -5.8860 ha         1 0YZ       0.145000
     30 H6           0.6490     2.4300    -7.4510 ha         1 0YZ       0.120000
     31 H7          -1.6770     1.5010    -7.4270 ha         1 0YZ       0.133000
     32 H8          -2.7290    -0.8470    -3.8960 h1         1 0YZ       0.049200
     33 H9          -2.3520    -2.2460    -5.0200 h1         1 0YZ       0.049200
     34 H10         -4.9410    -0.5460    -5.2140 hc         1 0YZ       0.050700
     35 H11         -4.8150    -2.0200    -4.1640 hc         1 0YZ       0.050700
     36 H12         -4.2530    -1.9300    -7.2080 hc         1 0YZ       0.047700
     37 H13         -4.2040    -3.4030    -6.1630 hc         1 0YZ       0.047700
     38 H14         -6.6840    -1.6080    -6.6400 hc         1 0YZ       0.037200
     39 H15         -6.6350    -3.0660    -5.5770 hc         1 0YZ       0.037200
     40 H16         -6.0190    -3.0260    -8.6130 hc         1 0YZ       0.040200
     41 H17         -5.9740    -4.4840    -7.5500 hc         1 0YZ       0.040200
     42 H18         -8.4490    -2.6860    -8.0420 hc         1 0YZ       0.038200
     43 H19         -8.4030    -4.1440    -6.9790 hc         1 0YZ       0.038200
     44 H20         -7.7400    -5.5620    -8.9520 hc         1 0YZ       0.039200
     45 H21         -7.7850    -4.1040   -10.0150 hc         1 0YZ       0.039200
     46 H22        -10.2160    -3.7640    -9.4450 hc         1 0YZ       0.038200
     47 H23        -10.1700    -5.2230    -8.3820 hc         1 0YZ       0.038200
     48 H24         -9.5510    -5.1810   -11.4170 hc         1 0YZ       0.038200
     49 H25         -9.5040    -6.6390   -10.3540 hc         1 0YZ       0.038200
     50 H26        -11.6650    -6.4940   -11.5940 hc         1 0YZ       0.030367
     51 H27        -11.9430    -6.3240    -9.8120 hc         1 0YZ       0.030367
     52 H28        -11.9890    -4.8620   -10.8770 hc         1 0YZ       0.030367
@<TRIPOS>BOND
     1     1     2 1   
     2     2     3 1   
     3     2     4 1   
     4     4     5 1   
     5     4     6 2   
     6     5    26 1   
     7     6     7 1   
     8     6    27 1   
     9     7     8 2   
    10     7     9 1   
    11     9    10 ar  
    12     9    11 ar  
    13    10    14 ar  
    14    10    28 1   
    15    11    12 ar  
    16    11    29 1   
    17    12    13 ar  
    18    12    30 1   
    19    13    14 ar  
    20    13    31 1   
    21    14    15 1   
    22    15    16 1   
    23    16    17 1   
    24    16    32 1   
    25    16    33 1   
    26    17    18 1   
    27    17    34 1   
    28    17    35 1   
    29    18    19 1   
    30    18    36 1   
    31    18    37 1   
    32    19    20 1   
    33    19    38 1   
    34    19    39 1   
    35    20    21 1   
    36    20    40 1   
    37    20    41 1   
    38    21    22 1   
    39    21    42 1   
    40    21    43 1   
    41    22    23 1   
    42    22    44 1   
    43    22    45 1   
    44    23    24 1   
    45    23    46 1   
    46    23    47 1   
    47    24    25 1   
    48    24    48 1   
    49    24    49 1   
    50    25    50 1   
    51    25    51 1   
    52    25    52 1   
@<TRIPOS>SUBSTRUCTURE
     1 0YZ         1 TEMP              0 ****  ****    0 ROOT
