@<TRIPOS>MOLECULE
molecule
   77    78     1     0     0
SMALL
bcc


@<TRIPOS>ATOM
      1 C1           0.0000     0.0000     0.0000 c3         1 0Z7       0.029000
      2 C2           1.5300     0.0000     0.0000 c3         1 0Z7       0.124100
      3 C3           0.3300    -1.1950     2.7010 c          1 0Z7       0.638100
      4 N1          -3.4360    -3.1080     6.9150 ns         1 0Z7      -0.584900
      5 C4          -3.3500    -2.6100     5.5400 c3         1 0Z7       0.011700
      6 C5          -1.9680    -2.8720     4.9980 c          1 0Z7       0.639100
      7 O1          -1.2630    -3.7130     5.5140 o          1 0Z7      -0.565100
      8 C6          -4.3830    -3.3290     4.6700 c3         1 0Z7      -0.093100
      9 C7          -5.7690    -2.9690     5.1370 ca         1 0Z7      -0.050300
     10 C8          -6.4180    -1.8740     4.5980 ca         1 0Z7      -0.123500
     11 C9          -6.3950    -3.7370     6.1020 ca         1 0Z7      -0.123500
     12 C10         -7.6900    -1.5430     5.0260 ca         1 0Z7      -0.122000
     13 C11         -7.6670    -3.4070     6.5310 ca         1 0Z7      -0.122000
     14 C12         -8.3130    -2.3080     5.9950 ca         1 0Z7      -0.117000
     15 N2          -1.5160    -2.1720     3.9390 ns         1 0Z7      -0.583900
     16 C13         -0.1720    -2.4260     3.4110 c3         1 0Z7       0.119700
     17 O2          -0.3660    -0.2030     2.6410 o          1 0Z7      -0.584100
     18 C14         -0.2240    -3.5970     2.4280 c3         1 0Z7      -0.160100
     19 C15         -0.6090    -4.8540     3.1650 ca         1 0Z7      -0.048300
     20 C16          0.3710    -5.6570     3.7190 ca         1 0Z7      -0.122000
     21 C17         -1.9400    -5.2020     3.2900 ca         1 0Z7      -0.122000
     22 C18          0.0180    -6.8110     4.3930 ca         1 0Z7      -0.093000
     23 C19         -2.2930    -6.3560     3.9650 ca         1 0Z7      -0.093000
     24 C20         -1.3130    -7.1620     4.5150 ca         1 0Z7      -0.080000
     25 N3           1.5520    -1.1960     2.1330 ns         1 0Z7      -0.601900
     26 C21          2.0400     0.0000     1.4420 c3         1 0Z7       0.176700
     27 O3           2.0070     1.1670    -0.6740 oh         1 0Z7      -0.607800
     28 C22          3.5700    -0.0010     1.4420 c3         1 0Z7      -0.285400
     29 C23          4.0800     0.1240     2.8790 c3         1 0Z7      -0.058400
     30 C24          5.6100     0.1240     2.8790 c3         1 0Z7       0.003300
     31 N4           6.0980     0.2440     4.2550 nu         1 0Z7      -0.309100
     32 C25          7.4430     0.2670     4.5040 c2         1 0Z7       0.403700
     33 N5           7.8870     0.3760     5.7550 nz         1 0Z7      -0.772600
     34 N6           8.3090     0.1780     3.4950 nv         1 0Z7      -0.406200
     35 O4          -2.9670    -5.1770     6.2670 o          1 0Z7      -0.595100
     36 C27         -3.3170    -4.9260     8.5870 c3         1 0Z7      -0.169100
     37 H1          -0.3600     0.9280     0.4280 h1         1 0Z7       0.090700
     38 H2          -0.3640    -0.8340     0.5890 h1         1 0Z7       0.090700
     39 H4           1.8910    -0.8850    -0.5110 h1         1 0Z7       0.065700
     40 H6          -3.5580    -1.5470     5.5290 h1         1 0Z7       0.066700
     41 H7          -3.6050    -2.8910     4.0560 hc         1 0Z7       0.103700
     42 H8          -4.0440    -4.3050     4.9950 hc         1 0Z7       0.103700
     43 H9          -5.9290    -1.2750     3.8390 ha         1 0Z7       0.130500
     44 H10         -5.8890    -4.5980     6.5210 ha         1 0Z7       0.130500
     45 H11         -8.1970    -0.6830     4.6060 ha         1 0Z7       0.138500
     46 H12         -8.1570    -4.0030     7.2910 ha         1 0Z7       0.138500
     47 H13         -9.3100    -2.0490     6.3310 ha         1 0Z7       0.140000
     48 H14         -2.0660    -1.4260     3.5620 hn         1 0Z7       0.340500
     49 H15          0.4970    -2.6690     4.2280 h1         1 0Z7       0.059700
     50 H16          0.4050    -3.6390     1.5480 hc         1 0Z7       0.081200
     51 H17          0.5060    -3.5730     3.2280 hc         1 0Z7       0.081200
     52 H18          1.4150    -5.3830     3.6240 ha         1 0Z7       0.120000
     53 H19         -2.7080    -4.5710     2.8580 ha         1 0Z7       0.120000
     54 H20          0.7860    -7.4420     4.8260 ha         1 0Z7       0.138500
     55 H21         -3.3370    -6.6290     4.0640 ha         1 0Z7       0.138500
     56 H22         -1.5920    -8.0650     5.0430 ha         1 0Z7       0.141000
     57 H23          2.1660    -1.9730     2.2770 hn         1 0Z7       0.322500
     58 H24          1.6800     0.8830     1.9560 h1         1 0Z7       0.075700
     59 H25          2.3930     0.9200    -1.4970 ho         1 0Z7       0.428000
     60 H26          3.0080     0.8640     1.7730 hc         1 0Z7       0.130700
     61 H27          4.1380     0.4240     0.6230 hc         1 0Z7       0.130700
     62 H28          3.7260    -0.7140     3.4670 hc         1 0Z7       0.061700
     63 H29          3.7180     1.0480     3.3150 hc         1 0Z7       0.061700
     64 H30          5.9710     0.9630     2.2960 h1         1 0Z7       0.099700
     65 H31          5.9740    -0.8000     2.4460 h1         1 0Z7       0.099700
     66 H32          5.4630     0.1430     5.0210 hn         1 0Z7       0.346700
     67 H33          7.3650     1.0900     6.2230 hn         1 0Z7       0.510467
     68 H34          7.7680    -0.4960     6.2310 hn         1 0Z7       0.510467
     69 H35          9.2890     0.1950     3.6990 hn         1 0Z7       0.364700
     70 H36         -2.6890    -4.3160     9.2260 hc         1 0Z7       0.064367
     71 H37         -4.3430    -4.8700     8.9290 hc         1 0Z7       0.064367
     72 H38         -2.9830    -5.9560     8.6240 hc         1 0Z7       0.064367
     73 Cl1         -0.6010    -0.1490    -1.6940 cl         1 0Z7      -0.165400
     74 H39          7.9590     0.0960     2.5610 hn         1 0Z7       0.364700
     75 C26         -3.2270    -4.4150     7.1730 c          1 0Z7       0.665100
     76 H53          8.8550     0.6280     5.7440 hn         1 0Z7       0.510467
     77 H5          -3.7580    -2.5020     7.6440 hn         1 0Z7       0.321500
@<TRIPOS>BOND
     1    22    20 ar  
     2    22    24 ar  
     3    20    19 ar  
     4    24    23 ar  
     5     1     2 1   
     6    19    18 1   
     7    19    21 ar  
     8    18    16 1   
     9    14    13 ar  
    10    14    12 ar  
    11    13    11 ar  
    12    23    21 ar  
    13    27     2 1   
    14     2    26 1   
    15    12    10 ar  
    16    17     3 2   
    17    16     3 1   
    18    16    15 1   
    19     3    25 1   
    20    11     9 ar  
    21    15     6 1   
    22    25    26 1   
    23    26    28 1   
    24    10     9 ar  
    25     9     8 1   
    26    36    75 1   
    27     6     5 1   
    28     6     7 2   
    29     5     8 1   
    30     5     4 1   
    31    28    29 1   
    32    75     4 1   
    33    75    35 2   
    34    29    30 1   
    35    30    31 1   
    36    31    32 2   
    37    32    34 1   
    38    32    33 1   
    39     1    37 1   
    40     1    38 1   
    41     2    39 1   
    42     4    77 1   
    43     5    40 1   
    44     8    41 1   
    45     8    42 1   
    46    10    43 1   
    47    11    44 1   
    48    12    45 1   
    49    13    46 1   
    50    14    47 1   
    51    15    48 1   
    52    16    49 1   
    53    18    50 1   
    54    18    51 1   
    55    20    52 1   
    56    21    53 1   
    57    22    54 1   
    58    23    55 1   
    59    24    56 1   
    60    25    57 1   
    61    26    58 1   
    62    27    59 1   
    63    28    60 1   
    64    28    61 1   
    65    29    62 1   
    66    29    63 1   
    67    30    64 1   
    68    30    65 1   
    69    31    66 1   
    70    33    67 1   
    71    33    68 1   
    72    34    69 1   
    73    34    74 1   
    74    36    70 1   
    75    36    71 1   
    76    36    72 1   
    77     1    73 1   
    78    76    33 1   
@<TRIPOS>SUBSTRUCTURE
     1 0Z7         1 TEMP              0 ****  ****    0 ROOT
