@<TRIPOS>MOLECULE
0ZA
   49    52     1     0     0
SMALL
bcc


@<TRIPOS>ATOM
      1 Cl1          0.0000     0.0000     0.0000 cl         1 0ZA      -0.020400
      2 C6           1.7360     0.0000     0.0000 ca         1 0ZA      -0.017600
      3 C5           2.4250     0.0000     1.2010 ca         1 0ZA      -0.107000
      4 C4           3.8050    -0.0000     1.2100 ca         1 0ZA      -0.067000
      5 C3           4.5000    -0.0010     0.0050 ca         1 0ZA      -0.169900
      6 C2           3.8000     0.0010    -1.2040 ca         1 0ZA      -0.037300
      7 C1           2.4250    -0.0040    -1.2040 ca         1 0ZA      -0.100000
      8 C10          5.9800    -0.0030    -0.0310 ce         1 0ZA       0.548800
      9 N9           6.5960     0.3570    -1.1180 n2         1 0ZA      -0.675900
     10 C8           5.8730     0.7940    -2.3080 c3         1 0ZA       0.145200
     11 C11          6.7620     0.5960    -3.5370 c3         1 0ZA       0.001400
     12 C12          5.5340     2.2800    -2.1700 c3         1 0ZA       0.001400
     13 C7           4.5810     0.0010    -2.4920 c3         1 0ZA       0.003900
     14 N13          6.6990    -0.3850     1.0800 nu         1 0ZA      -0.438200
     15 C14          8.1640    -0.3870     1.0390 c3         1 0ZA       0.145200
     16 C25          8.6500    -1.6890     0.4560 cc         1 0ZA       0.363200
     17 N24          8.0910    -2.8700     0.6200 nd         1 0ZA      -0.681100
     18 C29          8.8520    -3.7340    -0.0730 c          1 0ZA       0.858000
     19 O28          8.6740    -4.9360    -0.1780 o          1 0ZA      -0.621500
     20 O26          9.8450    -3.0220    -0.6260 os         1 0ZA      -0.254400
     21 N27          9.7210    -1.8520    -0.3260 na         1 0ZA      -0.069700
     22 C18          8.7140    -0.2270     2.4580 c3         1 0ZA       0.023900
     23 C19          8.3320     1.1270     2.9960 ca         1 0ZA      -0.100300
     24 C24          7.1450     1.2870     3.6870 ca         1 0ZA      -0.096000
     25 C23          6.7940     2.5300     4.1800 ca         1 0ZA      -0.093000
     26 C22          7.6300     3.6120     3.9830 ca         1 0ZA      -0.095000
     27 C21          8.8160     3.4540     3.2910 ca         1 0ZA      -0.093000
     28 C20          9.1700     2.2090     2.8030 ca         1 0ZA      -0.096000
     29 H1           1.8790     0.0000     2.1360 ha         1 0ZA       0.117000
     30 H2           4.3440    -0.0000     2.1500 ha         1 0ZA       0.107000
     31 H3           1.8830    -0.0950    -2.1370 ha         1 0ZA       0.122000
     32 H4           6.9820    -0.4580    -3.6580 hc         1 0ZA       0.007867
     33 H5           7.6870     1.1450    -3.4060 hc         1 0ZA       0.007867
     34 H6           6.2480     0.9610    -4.4180 hc         1 0ZA       0.007867
     35 H7           4.9580     2.4360    -1.2660 hc         1 0ZA       0.007867
     36 H8           6.4490     2.8570    -2.1190 hc         1 0ZA       0.007867
     37 H9           4.9530     2.5990    -3.0270 hc         1 0ZA       0.007867
     38 H10          3.9860     0.4600    -3.2730 hc         1 0ZA       0.035200
     39 H11          4.8210    -1.0190    -2.7670 hc         1 0ZA       0.035200
     40 H12          6.2220    -0.6920     1.9050 hn         1 0ZA       0.307800
     41 H13          8.5090     0.4350     0.4230 h1         1 0ZA       0.063700
     42 H14         10.3370    -1.1180    -0.6160 hn         1 0ZA       0.320800
     43 H15          9.7940    -0.3160     2.4390 hc         1 0ZA       0.032200
     44 H16          8.3000    -0.9990     3.0950 hc         1 0ZA       0.032200
     45 H17          6.4900     0.4380     3.8410 ha         1 0ZA       0.103000
     46 H18          5.8640     2.6550     4.7210 ha         1 0ZA       0.105000
     47 H19          7.3540     4.5870     4.3670 ha         1 0ZA       0.105000
     48 H20          9.4720     4.3020     3.1380 ha         1 0ZA       0.105000
     49 H21         10.1000     2.0840     2.2610 ha         1 0ZA       0.103000
@<TRIPOS>BOND
     1     1     2 1   
     2     2     3 ar  
     3     2     7 ar  
     4     3     4 ar  
     5     3    29 1   
     6     4     5 ar  
     7     4    30 1   
     8     5     6 ar  
     9     5     8 1   
    10     6     7 ar  
    11     6    13 1   
    12     7    31 1   
    13     8     9 2   
    14     8    14 1   
    15     9    10 1   
    16    10    11 1   
    17    10    12 1   
    18    10    13 1   
    19    11    32 1   
    20    11    33 1   
    21    11    34 1   
    22    12    35 1   
    23    12    36 1   
    24    12    37 1   
    25    13    38 1   
    26    13    39 1   
    27    14    15 1   
    28    14    40 1   
    29    15    16 1   
    30    15    22 1   
    31    15    41 1   
    32    16    17 2   
    33    16    21 1   
    34    17    18 1   
    35    18    19 2   
    36    18    20 1   
    37    20    21 1   
    38    21    42 1   
    39    22    23 1   
    40    22    43 1   
    41    22    44 1   
    42    23    24 ar  
    43    23    28 ar  
    44    24    25 ar  
    45    24    45 1   
    46    25    26 ar  
    47    25    46 1   
    48    26    27 ar  
    49    26    47 1   
    50    27    28 ar  
    51    27    48 1   
    52    28    49 1   
@<TRIPOS>SUBSTRUCTURE
     1 0ZA         1 TEMP              0 ****  ****    0 ROOT
