@<TRIPOS>MOLECULE
0ZA
   50    53     1     0     0
SMALL
bcc


@<TRIPOS>ATOM
      1 Cl1         -0.0350     0.5540     0.5450 cl         1 0ZA      -0.024400
      2 C6           1.6390     0.5040     0.3350 ca         1 0ZA       0.060400
      3 C5           2.4760     1.1630     1.2480 ca         1 0ZA      -0.117000
      4 C4           3.8550     1.1200     1.0780 ca         1 0ZA      -0.104000
      5 C3           4.4100     0.4190     0.0030 ca         1 0ZA      -0.221900
      6 C2           3.5720    -0.2320    -0.9250 ca         1 0ZA      -0.011300
      7 C1           2.1860    -0.1890    -0.7500 ca         1 0ZA      -0.118000
      8 C10          5.8570     0.3160    -0.2810 ce         1 0ZA       0.559800
      9 N9           6.3990    -0.0940    -1.3780 n2         1 0ZA      -0.540900
     10 C8           5.5510    -0.4990    -2.5040 c3         1 0ZA       0.150200
     11 C11          6.2360    -1.6510    -3.2610 c3         1 0ZA      -0.093100
     12 C12          5.3820     0.6760    -3.4860 c3         1 0ZA      -0.093100
     13 C7           4.1510    -0.9920    -2.0640 c3         1 0ZA      -0.079100
     14 N13          6.7450     0.7060     0.8580 ny         1 0ZA      -0.726000
     15 C14          8.2240     0.5080     0.6540 c3         1 0ZA       0.120200
     16 C25          8.5810    -0.9520     0.5180 cc         1 0ZA       0.520200
     17 N24          7.8310    -1.9740     0.8950 nd         1 0ZA      -0.614100
     18 C29          8.5800    -3.1500     0.5190 c          1 0ZA       0.817000
     19 O28          8.4050    -4.3480     0.5790 o          1 0ZA      -0.455500
     20 O26          9.8130    -2.7050    -0.1030 os         1 0ZA      -0.216400
     21 N27          9.7850    -1.3570    -0.1970 na         1 0ZA      -0.492700
     22 C18          9.0150     1.1170     1.8280 c3         1 0ZA      -0.055100
     23 C19          8.6530     2.5440     2.0360 ca         1 0ZA      -0.166300
     24 C24          9.2450     3.5440     1.2540 ca         1 0ZA      -0.130000
     25 C23          8.9290     4.8840     1.4760 ca         1 0ZA      -0.113500
     26 C22          8.0250     5.2330     2.4800 ca         1 0ZA      -0.094000
     27 C21          7.4370     4.2400     3.2660 ca         1 0ZA      -0.113500
     28 C20          7.7490     2.9000     3.0460 ca         1 0ZA      -0.130000
     29 H1           2.0410     1.7150     2.0980 ha         1 0ZA       0.171000
     30 H2           4.4780     1.6610     1.8060 ha         1 0ZA       0.122000
     31 H3           1.5270    -0.7030    -1.4700 ha         1 0ZA       0.174000
     32 H4           6.4000    -2.5320    -2.5960 hc         1 0ZA       0.061200
     33 H5           7.2180    -1.3210    -3.6750 hc         1 0ZA       0.061200
     34 H6           5.5730    -1.9580    -4.1060 hc         1 0ZA       0.061200
     35 H7           4.8070     1.5080    -3.0150 hc         1 0ZA       0.061200
     36 H8           6.3750     1.0580    -3.8240 hc         1 0ZA       0.061200
     37 H9           4.8200     0.3130    -4.3810 hc         1 0ZA       0.061200
     38 H10          4.2180    -2.0750    -1.7630 hc         1 0ZA       0.091200
     39 H11          3.4660    -0.9380    -2.9530 hc         1 0ZA       0.091200
     40 H12          6.5930     1.7090     1.0500 hn         1 0ZA       0.474300
     41 H13          8.5070     1.0490    -0.3050 hx         1 0ZA       0.153700
     42 H14         10.6440    -0.9740     0.1880 hn         1 0ZA       0.428800
     43 H15         10.1070     1.0300     1.5720 hc         1 0ZA       0.093200
     44 H16          8.8400     0.5240     2.7650 hc         1 0ZA       0.093200
     45 H17          9.9740     3.2750     0.4740 ha         1 0ZA       0.137500
     46 H18          9.4040     5.6670     0.8640 ha         1 0ZA       0.157500
     47 H19          7.7840     6.2930     2.6620 ha         1 0ZA       0.160000
     48 H20          6.7390     4.5160     4.0720 ha         1 0ZA       0.157500
     49 H21          7.3150     2.1250     3.6970 ha         1 0ZA       0.137500
     50 H132         6.4330     0.1620     1.6760 hn         1 0ZA       0.474300
@<TRIPOS>BOND
     1     1     2 1   
     2     2     3 ar  
     3     2     7 ar  
     4     3     4 ar  
     5     3    29 1   
     6     4     5 ar  
     7     4    30 1   
     8     5     6 ar  
     9     5     8 1   
    10     6     7 ar  
    11     6    13 1   
    12     7    31 1   
    13     8     9 2   
    14     8    14 1   
    15     9    10 1   
    16    10    11 1   
    17    10    12 1   
    18    10    13 1   
    19    11    32 1   
    20    11    33 1   
    21    11    34 1   
    22    12    35 1   
    23    12    36 1   
    24    12    37 1   
    25    13    38 1   
    26    13    39 1   
    27    14    15 1   
    28    14    40 1   
    29    14    50 1   
    30    15    16 1   
    31    15    22 1   
    32    15    41 1   
    33    16    17 2   
    34    16    21 1   
    35    17    18 1   
    36    18    19 2   
    37    18    20 1   
    38    20    21 1   
    39    21    42 1   
    40    22    23 1   
    41    22    43 1   
    42    22    44 1   
    43    23    24 ar  
    44    23    28 ar  
    45    24    25 ar  
    46    24    45 1   
    47    25    26 ar  
    48    25    46 1   
    49    26    27 ar  
    50    26    47 1   
    51    27    28 ar  
    52    27    48 1   
    53    28    49 1   
@<TRIPOS>SUBSTRUCTURE
     1 0ZA         1 TEMP              0 ****  ****    0 ROOT
