@<TRIPOS>MOLECULE
T01
   58    58     1     0     0
SMALL
bcc


@<TRIPOS>ATOM
      1 CAP          0.0000     0.0000     0.0000 ca         1 T01      -0.041000
      2 CAN          1.3790     0.0000     0.0000 ca         1 T01      -0.153000
      3 CBG          2.0740     0.0000     1.2000 ca         1 T01       0.067900
      4 FAM          3.4250    -0.0010     1.1940 f          1 T01      -0.153900
      5 CAO          1.3880     0.0010     2.4040 ca         1 T01      -0.153000
      6 CAQ          0.0100     0.0010     2.4160 ca         1 T01      -0.041000
      7 CBH         -0.6950     0.0000     1.2100 ca         1 T01      -0.111600
      8 CBF         -2.1730     0.0070     1.2160 c          1 T01       0.567700
      9 OAF         -2.7840     0.0110     0.1660 o          1 T01      -0.697100
     10 N           -2.8420     0.0070     2.3860 ns         1 T01      -0.080900
     11 CA          -4.3070     0.0130     2.3920 c3         1 T01      -0.111300
     12 C           -4.8040     1.4310     2.2730 c          1 T01       0.992600
     13 O           -4.0160     2.3430     2.1920 o          1 T01      -0.915800
     14 OXT         -6.1230     1.6810     2.2580 o          1 T01      -0.915800
     15 CB          -4.8140    -0.5980     3.7000 c3         1 T01      -0.010400
     16 CG          -4.4150    -2.0730     3.7620 c3         1 T01      -0.116400
     17 CD          -4.9160    -2.6750     5.0510 c          1 T01       0.540100
     18 OE1         -5.5300    -1.9900     5.8400 o          1 T01      -0.712100
     19 NE2         -4.6790    -3.9740     5.3240 ns         1 T01      -0.078900
     20 CBK         -5.1650    -4.5580     6.5770 c3         1 T01      -0.127300
     21 CBD         -4.1670    -4.2940     7.6750 c          1 T01       1.004600
     22 OAK         -4.4030    -4.7410     8.9180 o          1 T01      -0.898300
     23 OAD         -3.1540    -3.6810     7.4360 o          1 T01      -0.898300
     24 CAV         -5.3420    -6.0670     6.4010 c3         1 T01       0.274400
     25 OAZ         -4.0690    -6.6730     6.1700 os         1 T01      -0.439200
     26 PBL         -3.8780    -8.2540     5.9400 p5         1 T01       0.731700
     27 OAL         -4.8290    -8.7210     4.9060 o          1 T01      -0.692500
     28 OAG         -2.3710    -8.5490     5.4550 o          1 T01      -0.692500
     29 NAY         -4.1730    -9.0700     7.3820 n7         1 T01      -0.572300
     30 CBJ         -3.2450    -8.6320     8.4340 c3         1 T01       0.067500
     31 CBC         -2.0670    -9.5710     8.4880 c          1 T01       0.995600
     32 OAJ         -2.0070   -10.5080     7.7290 o          1 T01      -0.956800
     33 OAC         -1.0850    -9.3650     9.3800 o          1 T01      -0.956800
     34 CAT         -3.9650    -8.6380     9.7840 c3         1 T01       0.003600
     35 CAR         -5.0830    -7.5950     9.7710 c3         1 T01      -0.187400
     36 CBA         -5.7920    -7.6000    11.1000 c          1 T01       1.007600
     37 OAH         -5.4390    -8.3620    11.9700 o          1 T01      -0.974800
     38 OAA         -6.8160    -6.7600    11.3190 o          1 T01      -0.974800
     39 H1          -0.5430    -0.0000    -0.9380 ha         1 T01       0.128500
     40 H2           1.9190    -0.0000    -0.9390 ha         1 T01       0.104000
     41 H3           1.9360     0.0010     3.3380 ha         1 T01       0.104000
     42 H4          -0.5250     0.0010     3.3580 ha         1 T01       0.128500
     43 H5          -2.3380     0.0450     3.2500 hn         1 T01       0.168500
     44 H6          -4.6740    -0.5700     1.5560 h1         1 T01       0.051700
     45 H8          -4.3770    -0.0700     4.5380 hc         1 T01       0.043700
     46 H9          -5.8930    -0.5130     3.7440 hc         1 T01       0.043700
     47 H10         -4.8520    -2.6010     2.9230 hc         1 T01       0.008700
     48 H11         -3.3360    -2.1570     3.7200 hc         1 T01       0.008700
     49 H12         -4.1980    -4.5460     4.6590 hn         1 T01       0.168500
     50 H13         -6.1170    -4.1110     6.8390 h1         1 T01       0.032700
     51 H15         -5.9920    -6.2580     5.5550 h1         1 T01      -0.017300
     52 H16         -5.7840    -6.4860     7.2970 h1         1 T01      -0.017300
     53 H18         -4.4980   -10.0160     7.3640 hn         1 T01       0.275800
     54 H19         -2.8980    -7.6290     8.2150 h1         1 T01       0.065700
     55 H21         -3.2590    -8.4010    10.5700 hc         1 T01      -0.003800
     56 H22         -4.3880    -9.6190     9.9620 hc         1 T01      -0.003800
     57 H23         -5.7890    -7.8320     8.9840 hc         1 T01       0.060700
     58 H24         -4.6600    -6.6140     9.5910 hc         1 T01       0.060700
@<TRIPOS>BOND
     1     1     2 ar  
     2     1     7 ar  
     3     1    39 1   
     4     2     3 ar  
     5     2    40 1   
     6     3     4 1   
     7     3     5 ar  
     8     5     6 ar  
     9     5    41 1   
    10     6     7 ar  
    11     6    42 1   
    12     7     8 1   
    13     8     9 2   
    14     8    10 1   
    15    10    11 1   
    16    10    43 1   
    17    11    12 1   
    18    11    15 1   
    19    11    44 1   
    20    12    13 1   
    21    12    14 1   
    22    15    16 1   
    23    15    45 1   
    24    15    46 1   
    25    16    17 1   
    26    16    47 1   
    27    16    48 1   
    28    17    18 2   
    29    17    19 1   
    30    19    20 1   
    31    19    49 1   
    32    20    21 1   
    33    20    24 1   
    34    20    50 1   
    35    21    22 1   
    36    21    23 1   
    37    24    25 1   
    38    24    51 1   
    39    24    52 1   
    40    25    26 1   
    41    26    27 1   
    42    26    28 1   
    43    26    29 1   
    44    29    30 1   
    45    29    53 1   
    46    30    31 1   
    47    30    34 1   
    48    30    54 1   
    49    31    32 1   
    50    31    33 1   
    51    34    35 1   
    52    34    55 1   
    53    34    56 1   
    54    35    36 1   
    55    35    57 1   
    56    35    58 1   
    57    36    37 1   
    58    36    38 1   
@<TRIPOS>SUBSTRUCTURE
     1 T01         1 TEMP              0 ****  ****    0 ROOT
