@<TRIPOS>MOLECULE
molecule
   58    58     1     0     0
SMALL
bcc


@<TRIPOS>ATOM
      1 CAP          0.0000     0.0000     0.0000 ca         1 T01      -0.066000
      2 CAN          1.3790     0.0000     0.0000 ca         1 T01      -0.185000
      3 CBG          2.0740     0.0000     1.2000 ca         1 T01       0.106900
      4 FAM          3.4250    -0.0010     1.1940 f          1 T01      -0.172900
      5 CAO          1.3880     0.0010     2.4040 ca         1 T01      -0.185000
      6 CAQ          0.0100     0.0010     2.4160 ca         1 T01      -0.066000
      7 CBH         -0.6950     0.0000     1.2100 ca         1 T01      -0.115600
      8 CBF         -2.1730     0.0070     1.2160 c          1 T01       0.664700
      9 OAF         -2.7840     0.0110     0.1660 o          1 T01      -0.647100
     10 N           -2.8420     0.0070     2.3860 ns         1 T01      -0.510900
     11 CA          -4.3070     0.0130     2.3920 c3         1 T01      -0.000300
     12 C           -4.8040     1.4310     2.2730 c          1 T01       0.895600
     13 O           -4.0160     2.3430     2.1920 o          1 T01      -0.865300
     14 OXT         -6.1230     1.6810     2.2580 o          1 T01      -0.865300
     15 CB          -4.8140    -0.5980     3.7000 c3         1 T01      -0.059400
     16 CG          -4.4150    -2.0730     3.7620 c3         1 T01      -0.169400
     17 CD          -4.9160    -2.6750     5.0510 c          1 T01       0.645100
     18 OE1         -5.5300    -1.9900     5.8400 o          1 T01      -0.663100
     19 NE2         -4.6790    -3.9740     5.3240 ns         1 T01      -0.513900
     20 CBK         -5.1650    -4.5580     6.5770 c3         1 T01      -0.002300
     21 CBD         -4.1670    -4.2940     7.6750 c          1 T01       0.908600
     22 OAK         -4.4030    -4.7410     8.9180 o          1 T01      -0.844800
     23 OAD         -3.1540    -3.6810     7.4360 o          1 T01      -0.844800
     24 CAV         -5.3420    -6.0670     6.4010 c3         1 T01       0.210400
     25 OAZ         -4.0690    -6.6730     6.1700 os         1 T01      -0.570200
     26 PBL         -3.8780    -8.2540     5.9400 p5         1 T01       1.337700
     27 OAL         -4.8290    -8.7210     4.9060 o          1 T01      -0.869500
     28 OAG         -2.3710    -8.5490     5.4550 o          1 T01      -0.869500
     29 NAY         -4.1730    -9.0700     7.3820 n7         1 T01      -0.931300
     30 CBJ         -3.2450    -8.6320     8.4340 c3         1 T01       0.110500
     31 CBC         -2.0670    -9.5710     8.4880 c          1 T01       0.897600
     32 OAJ         -2.0070   -10.5080     7.7290 o          1 T01      -0.902300
     33 OAC         -1.0850    -9.3650     9.3800 o          1 T01      -0.902300
     34 CAT         -3.9650    -8.6380     9.7840 c3         1 T01      -0.036400
     35 CAR         -5.0830    -7.5950     9.7710 c3         1 T01      -0.196400
     36 CBA         -5.7920    -7.6000    11.1000 c          1 T01       0.904600
     37 OAH         -5.4390    -8.3620    11.9700 o          1 T01      -0.923800
     38 OAA         -6.8160    -6.7600    11.3190 o          1 T01      -0.923800
     39 H1          -0.5430    -0.0000    -0.9380 ha         1 T01       0.157500
     40 H2           1.9190    -0.0000    -0.9390 ha         1 T01       0.127500
     41 H3           1.9360     0.0010     3.3380 ha         1 T01       0.127500
     42 H4          -0.5250     0.0010     3.3580 ha         1 T01       0.157500
     43 H5          -2.3380     0.0450     3.2500 hn         1 T01       0.311500
     44 H6          -4.6740    -0.5700     1.5560 h1         1 T01       0.068700
     45 H8          -4.3770    -0.0700     4.5380 hc         1 T01       0.068700
     46 H9          -5.8930    -0.5130     3.7440 hc         1 T01       0.068700
     47 H10         -4.8520    -2.6010     2.9230 hc         1 T01       0.039200
     48 H11         -3.3360    -2.1570     3.7200 hc         1 T01       0.039200
     49 H12         -4.1980    -4.5460     4.6590 hn         1 T01       0.315500
     50 H13         -6.1170    -4.1110     6.8390 h1         1 T01       0.050700
     51 H15         -5.9920    -6.2580     5.5550 h1         1 T01       0.020200
     52 H16         -5.7840    -6.4860     7.2970 h1         1 T01       0.020200
     53 H18         -4.4980   -10.0160     7.3640 hn         1 T01       0.384800
     54 H19         -2.8980    -7.6290     8.2150 h1         1 T01       0.081700
     55 H21         -3.2590    -8.4010    10.5700 hc         1 T01       0.018700
     56 H22         -4.3880    -9.6190     9.9620 hc         1 T01       0.018700
     57 H23         -5.7890    -7.8320     8.9840 hc         1 T01       0.071700
     58 H24         -4.6600    -6.6140     9.5910 hc         1 T01       0.071700
@<TRIPOS>BOND
     1    13    12 1
     2    14    12 1
     3    12    11 1
     4    32    31 1
     5    37    36 1
     6     2     1 ar
     7     2     3 ar
     8     1     7 ar
     9    36    38 1
    10    36    35 1
    11    31    33 1
    12    31    30 1
    13    10    11 1
    14    10     8 1
    15    11    15 1
    16    15    16 1
    17    35    34 1
    18    34    30 1
    19     3     4 1
    20     3     5 ar
    21     7     8 1
    22     7     6 ar
    23    30    29 1
    24     8     9 2
    25    16    17 1
    26     5     6 ar
    27    27    26 1
    28    29    26 1
    29    17    18 2
    30    17    19 1
    31    24    20 1
    32    24    25 1
    33    26    25 1
    34    26    28 1
    35    20    19 1
    36    20    21 1
    37    21    23 1
    38    21    22 1
    39     1    39 1
    40     2    40 1
    41     5    41 1
    42     6    42 1
    43    10    43 1
    44    11    44 1
    45    15    45 1
    46    15    46 1
    47    16    47 1
    48    16    48 1
    49    19    49 1
    50    20    50 1
    51    24    51 1
    52    24    52 1
    53    29    53 1
    54    30    54 1
    55    34    55 1
    56    34    56 1
    57    35    57 1
    58    35    58 1
@<TRIPOS>SUBSTRUCTURE
     1 T01         1 TEMP              0 ****  ****    0 ROOT
