@<TRIPOS>MOLECULE
T03
   22    23     1     0     0
SMALL
bcc


@<TRIPOS>ATOM
      1 F           0.0370   -0.5420   -0.0760 f         1 T03     -0.137900
      2 S           6.3420   -1.4500    0.2030 ss        1 T03     -0.182200
      3 C1          4.1480   -0.0320    0.2060 ca        1 T03     -0.103300
      4 N1          8.9050   -2.2430    0.5810 n2        1 T03     -0.515900
      5 C2          3.3820   -0.2470    1.3600 ca        1 T03     -0.083000
      6 N2          9.5630   -1.0650   -1.3260 ne        1 T03     -0.260300
      7 C3          2.0050   -0.4190    1.2750 ca        1 T03     -0.168000
      8 N3          8.6320   -0.3930   -0.9080 n2        1 T03     -0.156200
      9 C4          1.3780   -0.3760    0.0160 ca        1 T03      0.136900
     10 C5          2.1390   -0.1590   -1.1480 ca        1 T03     -0.168000
     11 C6          3.5150    0.0110   -1.0430 ca        1 T03     -0.083000
     12 C8          9.7600   -2.2330   -0.4110 ce        1 T03      0.513200
     13 C9          8.0680   -1.0390    0.3620 c3        1 T03      0.208800
     14 H2          3.8730   -0.2830    2.3440 ha        1 T03      0.144500
     15 H3          1.4020   -0.5900    2.1790 ha        1 T03      0.152500
     16 H5          1.6410   -0.1280   -2.1270 ha        1 T03      0.152500
     17 H6          4.1120    0.1790   -1.9530 ha        1 T03      0.144500
     18 H7          5.9860    0.8180   -0.5200 h1        1 T03      0.077700
     19 H7A         5.8850    0.6500    1.2770 h1        1 T03      0.077700
     20 H81         8.2120   -0.3150    1.2120 h3        1 T03      0.133700
     21 C7          5.6100    0.1650    0.3070 c3        1 T03      0.028000
     22 H8         10.5600   -2.9580   -0.6100 h5        1 T03      0.087800
@<TRIPOS>BOND
     1    1    9 1   
     2    2   13 1   
     3    2   21 1   
     4    3    5 ar  
     5    3   11 ar  
     6    3   21 1   
     7    4   12 2   
     8    4   13 1   
     9    5    7 ar  
    10    5   14 1   
    11    6    8 2   
    12    6   12 1   
    13    7    9 ar  
    14    7   15 1   
    15    8   13 1   
    16    9   10 ar  
    17   10   11 ar  
    18   10   16 1   
    19   11   17 1   
    20   12   22 1   
    21   13   20 1   
    22   18   21 1   
    23   19   21 1   
@<TRIPOS>SUBSTRUCTURE
     1 T03         1 TEMP              0 ****  ****    0 ROOT
