@<TRIPOS>MOLECULE
molecule
   22    23     1     0     0
SMALL
bcc


@<TRIPOS>ATOM
      1 F            0.0000     0.0000     0.0000 f          1 T03      -0.137900
      2 S            6.2340    -1.6990     0.0040 ss         1 T03      -0.275400
      3 C1           4.1160     0.0000     0.0000 ca         1 T03      -0.106300
      4 N1           8.9110    -2.4360     0.0050 na         1 T03      -0.427700
      5 C2           3.4260     0.0000     1.1980 ca         1 T03      -0.084000
      6 N2           9.8590    -0.5050    -0.0010 nc         1 T03      -0.344000
      7 C3           2.0440     0.0000     1.1990 ca         1 T03      -0.169000
      8 N3           8.5890    -0.3070    -0.0010 nc         1 T03      -0.370000
      9 C4           1.3510     0.0010     0.0000 ca         1 T03       0.142900
     10 C5           2.0440    -0.0000    -1.1980 ca         1 T03      -0.169000
     11 C6           3.4260     0.0000    -1.1980 ca         1 T03      -0.084000
     12 C8          10.1130    -1.7830     0.0030 cd         1 T03       0.355400
     13 C9           7.9580    -1.4590     0.0030 cd         1 T03       0.457800
     14 H2           3.9690    -0.0000     2.1350 ha         1 T03       0.144000
     15 H3           1.5030     0.0000     2.1380 ha         1 T03       0.149000
     16 H5           1.5030     0.0000    -2.1370 ha         1 T03       0.149000
     17 H6           3.9680     0.0000    -2.1360 ha         1 T03       0.144000
     18 H7           5.9820     0.5150    -0.8870 h1         1 T03       0.087700
     19 H7A          5.9830     0.5210     0.8820 h1         1 T03       0.087700
     20 H81          8.7620    -3.4260     0.0080 hn         1 T03       0.314700
     21 C7           5.6240     0.0060    -0.0010 c3         1 T03       0.061000
     22 H8          11.0940    -2.2430     0.0040 h5         1 T03       0.075100
@<TRIPOS>BOND
     1     1     9 1
     2     2    21 1
     3     2    13 1
     4     3     5 ar
     5     3    11 ar
     6     3    21 1
     7     4    12 1
     8     4    13 1
     9     5     7 ar
    10     5    14 1
    11     6     8 1
    12     6    12 2
    13     7     9 ar
    14     7    15 1
    15     8    13 2
    16     9    10 ar
    17    10    11 ar
    18    10    16 1
    19    11    17 1
    20    21    18 1
    21    21    19 1
    22    12    22 1
    23     4    20 1
@<TRIPOS>SUBSTRUCTURE
     1 T03         1 TEMP              0 ****  ****    0 ROOT
