@<TRIPOS>MOLECULE
T04
   53    55     1     0     0
SMALL
bcc


@<TRIPOS>ATOM
      1 OE1          0.0000     0.0000     0.0000 o          1 T04      -0.917800
      2 CD           1.3430     0.0000     0.0000 c          1 T04       0.981600
      3 OE2          1.9460     0.0000     1.0460 o          1 T04      -0.917800
      4 CG           2.0960     0.0010    -1.3050 c3         1 T04      -0.143400
      5 CB           3.6000     0.0010    -1.0250 c3         1 T04      -0.012400
      6 C            5.8420    -0.1210    -2.0760 c          1 T04       0.987600
      7 O            6.5990     0.7470    -2.4410 o          1 T04      -0.906800
      8 OXT          6.3170    -1.1970    -1.4280 o          1 T04      -0.906800
      9 N            4.1040     1.2540    -3.0640 ns         1 T04      -0.081900
     10 CAU          4.2240     1.3030    -4.4050 c          1 T04       0.557700
     11 OBC          4.5510     0.3070    -5.0220 o          1 T04      -0.660100
     12 CAT          3.9600     2.5650    -5.1260 ca         1 T04      -0.129600
     13 CAQ          3.5860     3.7100    -4.4200 ca         1 T04      -0.039000
     14 CAS          4.0900     2.6210    -6.5170 ca         1 T04       0.179900
     15 CAR          3.8420     3.8060    -7.1830 ca         1 T04      -0.169000
     16 CAP          3.4660     4.9340    -6.4770 ca         1 T04      -0.076000
     17 CAO          3.3420     4.8850    -5.0980 ca         1 T04      -0.167300
     18 CAN          2.9370     6.1210    -4.3370 c3         1 T04       0.221100
     19 NAY          4.1350     6.8750    -3.9580 nu         1 T04      -0.375600
     20 CAA          4.0120     8.0630    -3.2420 ca         1 T04       0.108600
     21 CAC          5.1510     8.7770    -2.8830 ca         1 T04      -0.204500
     22 CAE          5.0350     9.9480    -2.1770 ca         1 T04      -0.009000
     23 CAB          2.7500     8.5350    -2.8930 ca         1 T04      -0.204500
     24 CAG          2.6230     9.7050    -2.1880 ca         1 T04      -0.009000
     25 CAF          3.7670    10.4240    -1.8180 ca         1 T04      -0.230800
     26 CAH          3.6380    11.6760    -1.0640 ce         1 T04       0.190800
     27 CAI          2.5070    11.9270    -0.3550 cd         1 T04      -0.202600
     28 SBG          1.1470    10.8310    -0.0440 ss         1 T04      -0.142200
     29 CAL          0.2290    12.0100     0.9090 cs         1 T04       0.313000
     30 SBH         -1.2980    11.7620     1.6410 s          1 T04      -0.508400
     31 NAX          0.9590    13.1300     0.9480 ns         1 T04      -0.013500
     32 CAK          2.1310    13.1660     0.3360 c          1 T04       0.601700
     33 FAS          4.4580     1.5190    -7.2070 f          1 T04      -0.108900
     34 OBE          2.8430    14.1530     0.3410 o          1 T04      -0.635500
     35 CA           4.3650     0.0020    -2.3500 c3         1 T04      -0.114300
     36 HG1          1.8340     0.8860    -1.8720 hc         1 T04      -0.001800
     37 HB1          3.8620    -0.8840    -0.4570 hc         1 T04       0.037700
     38 HG2          1.8350    -0.8830    -1.8730 hc         1 T04      -0.001800
     39 HB2          3.8620     0.8850    -0.4560 hc         1 T04       0.037700
     40 H            3.8680     2.0810    -2.5530 hn         1 T04       0.154500
     41 HA           4.0390    -0.8350    -2.9560 h1         1 T04       0.055700
     42 HAX          0.6240    13.9330     1.4420 hn         1 T04       0.191500
     43 HAQ          3.4880     3.6750    -3.3420 ha         1 T04       0.132000
     44 HAR          3.9400     3.8510    -8.2610 ha         1 T04       0.108000
     45 HAP          3.2730     5.8600    -7.0030 ha         1 T04       0.093000
     46 HAN1         2.3050     6.7390    -4.9630 h1         1 T04       0.022700
     47 HAN2         2.3930     5.8340    -3.4450 h1         1 T04       0.022700
     48 HAY          5.0410     6.5380    -4.2150 hn         1 T04       0.305800
     49 HAC          6.1310     8.4090    -3.1600 ha         1 T04       0.123000
     50 HAB          1.8650     7.9790    -3.1800 ha         1 T04       0.123000
     51 HAE          5.9220    10.5020    -1.8950 ha         1 T04       0.116000
     52 HAG          1.6410    10.0710    -1.9150 ha         1 T04       0.116000
     53 HAH          4.3890    12.4490    -1.1710 ha         1 T04       0.112000
@<TRIPOS>BOND
     1     1     2 1   
     2     2     3 1   
     3     2     4 1   
     4     4     5 1   
     5     4    36 1   
     6     4    38 1   
     7     5    35 1   
     8     5    37 1   
     9     5    39 1   
    10     6     7 1   
    11     6     8 1   
    12     6    35 1   
    13     9    10 1   
    14     9    35 1   
    15     9    40 1   
    16    10    11 2   
    17    10    12 1   
    18    12    13 ar  
    19    12    14 ar  
    20    13    17 ar  
    21    13    43 1   
    22    14    15 ar  
    23    14    33 1   
    24    15    16 ar  
    25    15    44 1   
    26    16    17 ar  
    27    16    45 1   
    28    17    18 1   
    29    18    19 1   
    30    18    46 1   
    31    18    47 1   
    32    19    20 1   
    33    19    48 1   
    34    20    21 ar  
    35    20    23 ar  
    36    21    22 ar  
    37    21    49 1   
    38    22    25 ar  
    39    22    51 1   
    40    23    24 ar  
    41    23    50 1   
    42    24    25 ar  
    43    24    52 1   
    44    25    26 1   
    45    26    27 2   
    46    26    53 1   
    47    27    28 1   
    48    27    32 1   
    49    28    29 1   
    50    29    30 2   
    51    29    31 1   
    52    31    32 1   
    53    31    42 1   
    54    32    34 2   
    55    35    41 1   
@<TRIPOS>SUBSTRUCTURE
     1 T04         1 TEMP              0 ****  ****    0 ROOT
