@<TRIPOS>MOLECULE
T05
   59    62     1     0     0
SMALL
bcc


@<TRIPOS>ATOM
      1 C4           0.0000     0.0000     0.0000 ca         1 T05      -0.081000
      2 C13         -2.9380    -2.2670     5.3590 ca         1 T05      -0.069000
      3 C3           1.3830     0.0000     0.0000 ca         1 T05      -0.129000
      4 C5          -0.6920    -0.0020     1.1950 ca         1 T05      -0.136000
      5 C12         -2.8560    -3.3820     4.5550 ca         1 T05      -0.079000
      6 C7           1.3890    -0.0020     2.3940 ca         1 T05      -0.122000
      7 C10         -1.3180    -2.2490     3.1010 ca         1 T05      -0.143000
      8 C14         -2.2090    -1.1190     5.0370 ca         1 T05      -0.074600
      9 C2           2.0760     0.0000     1.1960 ca         1 T05      -0.087300
     10 C6           0.0020    -0.0080     2.3970 ca         1 T05       0.122100
     11 C9          -1.3930    -1.1140     3.8960 ca         1 T05       0.132100
     12 C11         -2.0490    -3.3740     3.4290 ca         1 T05      -0.142500
     13 C28         -0.5410    -7.3000     7.4690 cc         1 T05      -0.088400
     14 C29         -0.6770    -8.2960     8.3710 cd         1 T05      -0.292400
     15 C30         -0.4170    -9.6290     7.9710 c          1 T05       0.624700
     16 C33          0.0890    -8.8640     5.8210 c          1 T05       0.587500
     17 C23          1.5930    -5.3340     3.6990 c3         1 T05      -0.039400
     18 C24          1.4280    -6.4820     4.6980 c3         1 T05      -0.057400
     19 C22          0.6620    -5.5630     2.5050 c3         1 T05       0.236800
     20 C26         -0.9620    -6.7580     4.0320 c3         1 T05       0.204800
     21 C25         -0.0130    -6.5140     5.2090 c3         1 T05      -0.008300
     22 C1           3.5830     0.0010     1.1930 c3         1 T05       0.068200
     23 C35         -1.1010    -7.9930     9.7850 c3         1 T05       0.104100
     24 N32         -0.0400    -9.8760     6.7000 ns         1 T05      -0.131500
     25 N27         -0.1610    -7.5940     6.1870 n          1 T05       0.066000
     26 N21         -0.7100    -5.7400     3.0020 n3         1 T05      -0.526500
     27 O16         -3.0830     0.0710     6.9840 o          1 T05      -0.866800
     28 O17         -1.6620     1.0760     5.6060 o          1 T05      -0.866800
     29 O8          -0.6770    -0.0090     3.5750 os         1 T05      -0.151200
     30 S18         -1.9470    -4.8100     2.4140 sy         1 T05       1.048200
     31 H1          -0.5410     0.0020    -0.9390 ha         1 T05       0.097000
     32 H2          -3.5710    -2.2780     6.2390 ha         1 T05       0.138000
     33 H3           1.9240     0.0010    -0.9390 ha         1 T05       0.097000
     34 H4          -1.7760    -0.0040     1.1950 ha         1 T05       0.123000
     35 H5          -3.4230    -4.2710     4.8040 ha         1 T05       0.107000
     36 H6           1.9330    -0.0040     3.3310 ha         1 T05       0.120000
     37 H7          -0.6890    -2.2500     2.2180 ha         1 T05       0.133000
     38 H8          -0.7380    -6.2750     7.7570 h4         1 T05       0.146000
     39 H9           1.3370    -4.3980     4.1810 hc         1 T05       0.022200
     40 H10          2.6190    -5.3000     3.3540 hc         1 T05       0.022200
     41 H11          1.6570    -7.4210     4.2070 hc         1 T05       0.036200
     42 H12          2.1020    -6.3320     5.5320 hc         1 T05       0.036200
     43 H13          0.9710    -6.4540     1.9700 h1         1 T05       0.026700
     44 H14          0.7000    -4.7050     1.8450 h1         1 T05       0.026700
     45 H15         -0.7830    -7.7430     3.6190 h1         1 T05       0.048200
     46 H16         -1.9880    -6.6820     4.3720 h1         1 T05       0.048200
     47 H17         -0.2510    -5.5650     5.6720 h1         1 T05       0.055700
     48 H18          3.9420    -0.3910     0.2490 hc         1 T05       0.002033
     49 H19          3.9440     1.0130     1.3240 hc         1 T05       0.002033
     50 H20          3.9460    -0.6200     2.0030 hc         1 T05       0.002033
     51 H21         -2.0410    -8.4880     9.9950 hc         1 T05       0.009367
     52 H22         -1.2220    -6.9230     9.9040 hc         1 T05       0.009367
     53 H23         -0.3440    -8.3490    10.4730 hc         1 T05       0.009367
     54 H24          0.1480   -10.8150     6.4100 hn         1 T05       0.201500
     55 O31         -0.5330   -10.5430     8.7650 o          1 T05      -0.672500
     56 C15         -2.2980     0.0800     5.8890 c          1 T05       0.962200
     57 O19         -3.1420    -5.5450     2.6370 o          1 T05      -0.598800
     58 O34          0.4250    -9.1030     4.6770 o          1 T05      -0.712500
     59 O20         -1.5380    -4.3650     1.1280 o          1 T05      -0.598800
@<TRIPOS>BOND
     1     1     3 ar  
     2     1     4 ar  
     3     1    31 1   
     4     2     5 ar  
     5     2     8 ar  
     6     2    32 1   
     7     3     9 ar  
     8     3    33 1   
     9     4    10 ar  
    10     4    34 1   
    11     5    12 ar  
    12     5    35 1   
    13     6     9 ar  
    14     6    10 ar  
    15     6    36 1   
    16     7    11 ar  
    17     7    12 ar  
    18     7    37 1   
    19     8    11 ar  
    20     8    56 1   
    21     9    22 1   
    22    10    29 1   
    23    11    29 1   
    24    12    30 1   
    25    13    14 2   
    26    13    25 1   
    27    13    38 1   
    28    14    15 1   
    29    14    23 1   
    30    15    24 1   
    31    15    55 2   
    32    16    24 1   
    33    16    25 1   
    34    16    58 2   
    35    17    18 1   
    36    17    19 1   
    37    17    39 1   
    38    17    40 1   
    39    18    21 1   
    40    18    41 1   
    41    18    42 1   
    42    19    26 1   
    43    19    43 1   
    44    19    44 1   
    45    20    21 1   
    46    20    26 1   
    47    20    45 1   
    48    20    46 1   
    49    21    25 1   
    50    21    47 1   
    51    22    48 1   
    52    22    49 1   
    53    22    50 1   
    54    23    51 1   
    55    23    52 1   
    56    23    53 1   
    57    24    54 1   
    58    26    30 1   
    59    27    56 1   
    60    28    56 1   
    61    30    57 2   
    62    30    59 2   
@<TRIPOS>SUBSTRUCTURE
     1 T05         1 TEMP              0 ****  ****    0 ROOT
