@<TRIPOS>MOLECULE
molecule
   24    25     1     0     0
SMALL
bcc


@<TRIPOS>ATOM
      1 S            0.0000     0.0000     0.0000 ss         1 T07      -0.282400
      2 C1           3.2370     0.0010    -4.0300 ca         1 T07       0.042400
      3 N1          -1.6540     0.0000     2.2520 na         1 T07      -0.465700
      4 C2           2.5460     1.1990    -2.0720 ca         1 T07       0.048400
      5 N2          -0.2580    -0.0020     3.9070 nc         1 T07      -0.363000
      6 Cl2          3.8140     0.0010    -5.6670 cl         1 T07      -0.093400
      7 C3           2.3160     0.0000    -1.4210 ca         1 T07      -0.080300
      8 C4           1.8140     0.0000     0.0000 c3         1 T07       0.054000
      9 N4           0.4640    -0.0010     2.7070 nc         1 T07      -0.383000
     10 C5           3.0070     1.1990    -3.3780 ca         1 T07      -0.118000
     11 C6           2.5400    -1.1970    -2.0750 ca         1 T07      -0.093000
     12 C7           3.0000    -1.1960    -3.3780 ca         1 T07      -0.123000
     13 C8          -1.5350    -0.0020     3.6120 cd         1 T07       0.637400
     14 C9          -0.3970    -0.0000     1.7160 cd         1 T07       0.502800
     15 HN1         -2.5120     0.0010     1.7370 hn         1 T07       0.302700
     16 HN3         -2.9520     0.8650     4.8630 hn         1 T07       0.446800
     17 HN3A        -2.9530    -0.8680     4.8610 hn         1 T07       0.446800
     18 H4           2.1750    -0.8850     0.5100 h1         1 T07       0.093700
     19 H4A          2.1750     0.8840     0.5110 h1         1 T07       0.093700
     20 H5           3.1870     2.1370    -3.8890 ha         1 T07       0.161000
     21 H6           2.3570    -2.1350    -1.5650 ha         1 T07       0.151000
     22 H7           3.1750    -2.1350    -3.8900 ha         1 T07       0.151000
     23 N3          -2.5830    -0.0020     4.5240 nv         1 T07      -1.047500
     24 Cl1          2.2570     2.7020    -1.2540 cl         1 T07      -0.082400
@<TRIPOS>BOND
     1     1     8 1
     2     1    14 1
     3     2     6 1
     4     2    10 ar
     5     2    12 ar
     6     3    13 1
     7     3    14 1
     8    24     4 1
     9     4     7 ar
    10     4    10 ar
    11     5     9 1
    12     5    13 2
    13     7     8 1
    14     7    11 ar
    15    23    13 1
    16     9    14 2
    17    11    12 ar
    18     3    15 1
    19    23    16 1
    20    23    17 1
    21     8    18 1
    22     8    19 1
    23    10    20 1
    24    11    21 1
    25    12    22 1
@<TRIPOS>SUBSTRUCTURE
     1 T07         1 TEMP              0 ****  ****    0 ROOT
