@<TRIPOS>MOLECULE
molecule
   69    70     1     0     0
SMALL
bcc


@<TRIPOS>ATOM
      1 O05          0.0000     0.0000     0.0000 oh         1 T08      -0.598800
      2 C20          1.4290     0.0000     0.0000 c3         1 T08       0.161100
      3 C21          1.9390    -1.2480    -0.7220 c3         1 T08      -0.072000
      4 C24          1.4290    -1.2480    -2.1640 c3         1 T08      -0.083433
      5 C23          3.4690    -1.2480    -0.7210 c3         1 T08      -0.083433
      6 C22          1.4300    -2.4990    -0.0010 c3         1 T08      -0.083433
      7 C19          1.9390     0.0000     1.4420 c3         1 T08       0.114400
      8 O04          1.5600     1.2200     2.0820 os         1 T08      -0.332900
      9 C16          1.9370     1.3810     3.3780 ca         1 T08       0.141100
     10 C17          2.6630     0.3880     4.0190 ca         1 T08      -0.218000
     11 C18          3.0520     0.5560     5.3340 ca         1 T08      -0.099000
     12 C15          1.6040     2.5420     4.0600 ca         1 T08      -0.111300
     13 C25          0.8210     3.6260     3.3660 c3         1 T08      -0.034800
     14 C14          1.9890     2.7040     5.3760 ca         1 T08      -0.082000
     15 C13          2.7170     1.7140     6.0110 ca         1 T08      -0.107300
     16 C10          3.1410     1.8950     7.4460 c3         1 T08       0.036600
     17 C11          1.9020     2.0380     8.3300 c3         1 T08      -0.081100
     18 C12          3.9500     0.6770     7.8960 c3         1 T08      -0.081100
     19 C7           3.9910     3.1340     7.5660 ca         1 T08      -0.106300
     20 C6           3.6510     4.1180     8.4770 ca         1 T08      -0.096000
     21 C5           4.4280     5.2540     8.5880 ca         1 T08      -0.109300
     22 C5A          4.0570     6.3260     9.5810 c3         1 T08      -0.035800
     23 C8           5.1110     3.2830     6.7700 ca         1 T08      -0.083000
     24 C9           5.8920     4.4180     6.8780 ca         1 T08      -0.217000
     25 C4           5.5500     5.4080     7.7870 ca         1 T08       0.139100
     26 O03          6.3160     6.5260     7.8960 os         1 T08      -0.323900
     27 C3           7.4600     6.6130     7.0430 c3         1 T08       0.130400
     28 C2           8.1920     7.9300     7.3070 c3         1 T08       0.152100
     29 O02          8.7130     7.9280     8.6380 oh         1 T08      -0.590800
     30 C1           9.3430     8.0820     6.3100 c3         1 T08       0.127400
     31 O01          9.9540     9.3630     6.4800 oh         1 T08      -0.605800
     32 H1          -0.3140     0.8550    -0.2420 ho         1 T08       0.408000
     33 H2           1.7900     0.8850    -0.5100 h1         1 T08       0.043700
     34 H3           0.3550    -1.3870    -2.1680 hc         1 T08       0.038922
     35 H4           1.9000    -2.0550    -2.7130 hc         1 T08       0.038922
     36 H5           1.6730    -0.3020    -2.6330 hc         1 T08       0.038922
     37 H6           3.8300    -1.6070     0.2350 hc         1 T08       0.038922
     38 H7           3.8300    -0.2400    -0.8880 hc         1 T08       0.038922
     39 H8           3.8310    -1.8960    -1.5100 hc         1 T08       0.038922
     40 H9           1.7310    -3.3810    -0.5530 hc         1 T08       0.038922
     41 H10          1.8500    -2.5360     0.9970 hc         1 T08       0.038922
     42 H11          0.3490    -2.4640     0.0630 hc         1 T08       0.038922
     43 H12          3.0180    -0.0890     1.4440 h1         1 T08       0.047700
     44 H13          1.5070    -0.8370     1.9780 h1         1 T08       0.047700
     45 H14          2.9260    -0.5200     3.4880 ha         1 T08       0.133000
     46 H15          3.6200    -0.2190     5.8340 ha         1 T08       0.136000
     47 H16          0.7050     4.4720     4.0330 hc         1 T08       0.043033
     48 H17         -0.1550     3.2470     3.0900 hc         1 T08       0.043033
     49 H18          1.3510     3.9400     2.4750 hc         1 T08       0.043033
     50 H19          1.7290     3.6100     5.9090 ha         1 T08       0.140000
     51 H20          1.4010     2.9710     8.1010 hc         1 T08       0.039033
     52 H21          1.2270     1.2120     8.1430 hc         1 T08       0.039033
     53 H22          2.1980     2.0340     9.3720 hc         1 T08       0.039033
     54 H23          4.3170     0.8390     8.9030 hc         1 T08       0.039033
     55 H24          4.7890     0.5330     7.2260 hc         1 T08       0.039033
     56 H25          3.3190    -0.2030     7.8790 hc         1 T08       0.039033
     57 H26          2.7800     3.9930     9.1080 ha         1 T08       0.141000
     58 H27          4.8630     6.4520    10.2940 hc         1 T08       0.043700
     59 H28          3.8870     7.2600     9.0590 hc         1 T08       0.043700
     60 H29          3.1540     6.0360    10.1050 hc         1 T08       0.043700
     61 H30          5.3770     2.5090     6.0600 ha         1 T08       0.135000
     62 H31          6.7690     4.5350     6.2530 ha         1 T08       0.132000
     63 H32          8.1260     5.7830     7.2460 h1         1 T08       0.044700
     64 H33          7.1420     6.5770     6.0080 h1         1 T08       0.044700
     65 H34          7.5020     8.7570     7.1900 h1         1 T08       0.054700
     66 H35          8.4330     8.7080     9.0870 ho         1 T08       0.413000
     67 H36          8.9610     7.9950     5.3010 h1         1 T08       0.030700
     68 H37         10.0780     7.3050     6.4860 h1         1 T08       0.030700
     69 H38         10.5510     9.5240     5.7680 ho         1 T08       0.406000
@<TRIPOS>BOND
     1    31    30 1
     2    30    28 1
     3    29    28 1
     4    28    27 1
     5    27    26 1
     6    26    25 1
     7    25    24 ar
     8    25    21 ar
     9    24    23 ar
    10    22    21 1
    11    21    20 ar
    12    23    19 ar
    13    20    19 ar
    14    19    16 1
    15    17    16 1
    16    16    15 1
    17    16    18 1
    18     5     3 1
    19    11    15 ar
    20    11    10 ar
    21    15    14 ar
    22    10     9 ar
    23    14    12 ar
    24     6     3 1
    25     7     8 1
    26     7     2 1
    27     9    12 ar
    28     9     8 1
    29     3     2 1
    30     3     4 1
    31    12    13 1
    32     2     1 1
    33     1    32 1
    34     2    33 1
    35     4    34 1
    36     4    35 1
    37     4    36 1
    38     5    37 1
    39     5    38 1
    40     5    39 1
    41     6    40 1
    42     6    41 1
    43     6    42 1
    44     7    43 1
    45     7    44 1
    46    10    45 1
    47    11    46 1
    48    13    47 1
    49    13    48 1
    50    13    49 1
    51    14    50 1
    52    17    51 1
    53    17    52 1
    54    17    53 1
    55    18    54 1
    56    18    55 1
    57    18    56 1
    58    20    57 1
    59    22    58 1
    60    22    59 1
    61    22    60 1
    62    23    61 1
    63    24    62 1
    64    27    63 1
    65    27    64 1
    66    28    65 1
    67    29    66 1
    68    30    67 1
    69    30    68 1
    70    31    69 1
@<TRIPOS>SUBSTRUCTURE
     1 T08         1 TEMP              0 ****  ****    0 ROOT
