@<TRIPOS>MOLECULE
T08
   69    70     1     0     0
SMALL
bcc


@<TRIPOS>ATOM
      1 O05         0.2670    0.3460   -0.0570 oh        1 T08     -0.599800
      2 C20         1.6120   -0.1110   -0.0570 c3        1 T08      0.150100
      3 C21         1.6510   -1.4490   -0.8230 c3        1 T08     -0.047000
      4 C24         1.1290   -1.2000   -2.2330 c3        1 T08     -0.088433
      5 C23         3.0850   -1.9500   -0.9060 c3        1 T08     -0.088433
      6 C22         0.7760   -2.4880   -0.1410 c3        1 T08     -0.088433
      7 C19         2.1180   -0.2460    1.3850 c3        1 T08      0.088400
      8 O04         2.0850    1.0880    1.9080 os        1 T08     -0.345900
      9 C16         2.3550    1.2150    3.2590 ca        1 T08      0.122100
     10 C17         2.8390    0.1820    4.0640 ca        1 T08     -0.199000
     11 C18         3.0980    0.4210    5.4150 ca        1 T08     -0.100000
     12 C15         2.1270    2.5020    3.7970 ca        1 T08     -0.099300
     13 C25         1.6240    3.5940    2.9350 c3        1 T08     -0.040800
     14 C14         2.3960    2.7120    5.1480 ca        1 T08     -0.094000
     15 C13         2.8810    1.6830    5.9710 ca        1 T08     -0.098300
     16 C10         3.1200    1.9800    7.4330 c3        1 T08      0.049600
     17 C11         1.7580    2.2080    8.0870 c3        1 T08     -0.086100
     18 C12         3.7920    0.8140    8.1570 c3        1 T08     -0.086100
     19 C7          4.0260    3.1810    7.5590 ca        1 T08     -0.100300
     20 C6          3.6990    4.2890    8.3470 ca        1 T08     -0.101000
     21 C5          4.5660    5.3760    8.4700 ca        1 T08     -0.101300
     22 C5A         4.2140    6.5460    9.3040 c3        1 T08     -0.041800
     23 C8          5.2530    3.1720    6.8830 ca        1 T08     -0.091000
     24 C9          6.1380    4.2420    6.9850 ca        1 T08     -0.196000
     25 C4          5.7960    5.3430    7.7780 ca        1 T08      0.120100
     26 O03         6.5910    6.4640    7.9420 os        1 T08     -0.335900
     27 C3          7.8860    6.3980    7.3350 c3        1 T08      0.126400
     28 C2          8.6050    7.6800    7.7660 c3        1 T08      0.143100
     29 O02         9.9820    7.4570    7.5050 oh        1 T08     -0.603800
     30 C1          8.0830    8.8840    6.9770 c3        1 T08      0.092400
     31 O01         8.8130   10.0090    7.4430 oh        1 T08     -0.613800
     32 H1          0.2540    1.1600    0.4640 ho        1 T08      0.415000
     33 H2          2.2550    0.6420   -0.5970 h1        1 T08      0.046700
     34 H3          0.0900   -0.7920   -2.1870 hc        1 T08      0.039367
     35 H4          1.7800   -0.4640   -2.7620 hc        1 T08      0.039367
     36 H5          1.1200   -2.1530   -2.8140 hc        1 T08      0.039367
     37 H6          3.4470   -2.2930    0.0930 hc        1 T08      0.039367
     38 H7          3.1410   -2.8140   -1.6120 hc        1 T08      0.039367
     39 H8          3.7620   -1.1440   -1.2770 hc        1 T08      0.039367
     40 H9         -0.2480   -2.0720    0.0210 hc        1 T08      0.039367
     41 H10         1.2070   -2.7810    0.8460 hc        1 T08      0.039367
     42 H11         0.7000   -3.4020   -0.7780 hc        1 T08      0.039367
     43 H12         1.4430   -0.9080    1.9860 h1        1 T08      0.053700
     44 H13         3.1700   -0.6290    1.4080 h1        1 T08      0.053700
     45 H14         3.0200   -0.8200    3.6510 ha        1 T08      0.136000
     46 H15         3.4760   -0.4100    6.0280 ha        1 T08      0.135000
     47 H16         0.7650    3.2320    2.3150 hc        1 T08      0.045033
     48 H17         2.4320    3.9300    2.2360 hc        1 T08      0.045033
     49 H18         1.2890    4.4700    3.5410 hc        1 T08      0.045033
     50 H19         2.2280    3.7110    5.5810 ha        1 T08      0.141000
     51 H20         1.8730    2.3460    9.1890 hc        1 T08      0.039867
     52 H21         1.2580    3.1070    7.6540 hc        1 T08      0.039867
     53 H22         1.1030    1.3200    7.9100 hc        1 T08      0.039867
     54 H23         4.7570    0.5470    7.6640 hc        1 T08      0.039867
     55 H24         3.1230   -0.0800    8.1630 hc        1 T08      0.039867
     56 H25         4.0030    1.1030    9.2150 hc        1 T08      0.039867
     57 H26         2.7440    4.3240    8.8930 ha        1 T08      0.137000
     58 H27         4.1170    7.4580    8.6620 hc        1 T08      0.045033
     59 H28         3.2520    6.3860    9.8480 hc        1 T08      0.045033
     60 H29         5.0240    6.7410   10.0520 hc        1 T08      0.045033
     61 H30         5.5200    2.3080    6.2540 ha        1 T08      0.139000
     62 H31         7.0930    4.2080    6.4410 ha        1 T08      0.140000
     63 H32         8.4480    5.5030    7.7070 h1        1 T08      0.056200
     64 H33         7.7800    6.3510    6.2210 h1        1 T08      0.056200
     65 H34         8.4540    7.8600    8.8670 h1        1 T08      0.065700
     66 H35        10.4280    8.2990    7.6680 ho        1 T08      0.425000
     67 H36         8.2620    8.7420    5.8780 h1        1 T08      0.041700
     68 H37         6.9870    9.0140    7.1710 h1        1 T08      0.041700
     69 H38         8.4730   10.7770    6.9700 ho        1 T08      0.409000
@<TRIPOS>BOND
     1    1    2 1   
     2    1   32 1   
     3    2    3 1   
     4    2    7 1   
     5    2   33 1   
     6    3    4 1   
     7    3    5 1   
     8    3    6 1   
     9    4   34 1   
    10    4   35 1   
    11    4   36 1   
    12    5   37 1   
    13    5   38 1   
    14    5   39 1   
    15    6   40 1   
    16    6   41 1   
    17    6   42 1   
    18    7    8 1   
    19    7   43 1   
    20    7   44 1   
    21    8    9 1   
    22    9   10 ar  
    23    9   12 ar  
    24   10   11 ar  
    25   10   45 1   
    26   11   15 ar  
    27   11   46 1   
    28   12   13 1   
    29   12   14 ar  
    30   13   47 1   
    31   13   48 1   
    32   13   49 1   
    33   14   15 ar  
    34   14   50 1   
    35   15   16 1   
    36   16   17 1   
    37   16   18 1   
    38   16   19 1   
    39   17   51 1   
    40   17   52 1   
    41   17   53 1   
    42   18   54 1   
    43   18   55 1   
    44   18   56 1   
    45   19   20 ar  
    46   19   23 ar  
    47   20   21 ar  
    48   20   57 1   
    49   21   22 1   
    50   21   25 ar  
    51   22   58 1   
    52   22   59 1   
    53   22   60 1   
    54   23   24 ar  
    55   23   61 1   
    56   24   25 ar  
    57   24   62 1   
    58   25   26 1   
    59   26   27 1   
    60   27   28 1   
    61   27   63 1   
    62   27   64 1   
    63   28   29 1   
    64   28   30 1   
    65   28   65 1   
    66   29   66 1   
    67   30   31 1   
    68   30   67 1   
    69   30   68 1   
    70   31   69 1   
@<TRIPOS>SUBSTRUCTURE
     1 T08         1 TEMP              0 ****  ****    0 ROOT
