@<TRIPOS>MOLECULE
T0E
   58    62     1     0     0
SMALL
bcc


@<TRIPOS>ATOM
      1 O            0.0000     0.0000     0.0000 o          1 T0E      -0.625100
      2 C6           1.2160     0.0000     0.0000 c          1 T0E       0.597700
      3 N            1.8910     0.0000     1.1660 ns         1 T0E      -0.211900
      4 C7           1.1590    -0.0000     2.4350 c3         1 T0E       0.150300
      5 C8           2.1390     0.0000     3.5800 cc         1 T0E      -0.290600
      6 N2           2.7320    -1.0850     4.1190 na         1 T0E       0.460400
      7 N1           3.5680    -0.6490     5.1560 nc         1 T0E      -0.655800
      8 C10          3.4770     0.6530     5.2350 cd         1 T0E       0.396200
      9 C9           2.5860     1.0890     4.2480 cd         1 T0E      -0.314300
     10 C5           1.9540    -0.0060    -1.2800 ca         1 T0E      -0.189600
     11 C            1.2570    -0.0120    -2.4920 ca         1 T0E       0.182900
     12 F           -0.0940    -0.0120    -2.4980 f          1 T0E      -0.106900
     13 C4           3.3500    -0.0010    -1.2850 ca         1 T0E      -0.062000
     14 C3           4.0330    -0.0070    -2.4820 ca         1 T0E      -0.111300
     15 C2           3.3380    -0.0190    -3.6810 ca         1 T0E      -0.047000
     16 C1           1.9560    -0.0180    -3.6850 ca         1 T0E      -0.143000
     17 C11          5.5400     0.0000    -2.4890 c3         1 T0E       0.013600
     18 C15          6.0540    -1.2510    -3.2050 c3         1 T0E      -0.055700
     19 C14          7.5830    -1.2090    -3.2620 c3         1 T0E       0.147800
     20 N3           8.0140    -0.0010    -3.9770 n7         1 T0E      -0.578200
     21 C13          7.5720     1.2140    -3.2810 c3         1 T0E       0.145800
     22 C12          6.0430     1.2450    -3.2240 c3         1 T0E      -0.022400
     23 C16          5.6060    -2.4980    -2.4410 c3         1 T0E       0.197400
     24 O1           5.9850    -3.6670    -3.1710 os         1 T0E      -0.301900
     25 C17          5.6590    -4.8690    -2.6260 ca         1 T0E       0.157100
     26 C23          5.9970    -6.0420    -3.2820 ca         1 T0E      -0.132000
     27 C22          5.6650    -7.2670    -2.7270 ca         1 T0E       0.099100
     28 O3           5.8790    -8.5440    -3.1590 os         1 T0E      -0.314900
     29 C21          4.9710    -9.3650    -2.4000 c3         1 T0E       0.432200
     30 O2           4.7820    -8.6250    -1.1790 os         1 T0E      -0.313900
     31 C20          4.9910    -7.3170    -1.5090 ca         1 T0E       0.014100
     32 C19          4.6550    -6.1410    -0.8570 ca         1 T0E      -0.042000
     33 C18          4.9920    -4.9210    -1.4110 ca         1 T0E      -0.216000
     34 H1           2.8910     0.0360     1.1660 hn         1 T0E       0.182500
     35 H2           0.5360    -0.8850     2.4930 h1         1 T0E       0.034200
     36 H3           0.5360     0.8840     2.4930 h1         1 T0E       0.034200
     37 H4           2.6000    -2.0340     3.8300 hn         1 T0E       0.148700
     38 H5           4.0040     1.2860     5.9390 h4         1 T0E       0.006100
     39 H6           2.2990     2.1160     4.0570 ha         1 T0E       0.139000
     40 H7           3.8960     0.0090    -0.3490 ha         1 T0E       0.108000
     41 H8           3.8810    -0.0230    -4.6180 ha         1 T0E       0.120000
     42 H9           1.4200    -0.0250    -4.6260 ha         1 T0E       0.126000
     43 H10          5.9100     0.0090    -1.4710 hc         1 T0E       0.030700
     44 H11          5.6570    -1.2770    -4.2130 hc         1 T0E       0.055700
     45 H12          7.9480    -2.0850    -3.7840 h1         1 T0E       0.015200
     46 H13          7.9800    -1.1910    -2.2540 h1         1 T0E       0.015200
     47 H14          9.0120     0.0030    -4.0530 hn         1 T0E       0.255800
     48 H16          7.9290     2.0850    -3.8180 h1         1 T0E       0.007200
     49 H17          7.9700     1.2160    -2.2740 h1         1 T0E       0.007200
     50 H18          5.6440     1.2540    -4.2310 hc         1 T0E       0.026200
     51 H19          5.7200     2.1320    -2.6930 hc         1 T0E       0.026200
     52 H20          6.0780    -2.5130    -1.4660 h1         1 T0E       0.007700
     53 H21          4.5300    -2.4810    -2.3210 h1         1 T0E       0.007700
     54 H22          6.5260    -6.0020    -4.2270 ha         1 T0E       0.127000
     55 H23          5.4340   -10.3210    -2.1830 h2         1 T0E       0.014700
     56 H24          4.1340    -6.1790     0.0920 ha         1 T0E       0.109000
     57 H25          4.7380    -4.0030    -0.8940 ha         1 T0E       0.122000
     58 H15          4.0290    -9.4550    -2.9260 h2         1 T0E       0.014700
@<TRIPOS>BOND
     1     1     2 2   
     2     2     3 1   
     3     2    10 1   
     4     3     4 1   
     5     3    34 1   
     6     4     5 1   
     7     4    35 1   
     8     4    36 1   
     9     5     6 1   
    10     5     9 2   
    11     6     7 1   
    12     6    37 1   
    13     7     8 2   
    14     8     9 1   
    15     8    38 1   
    16     9    39 1   
    17    10    11 ar  
    18    10    13 ar  
    19    11    12 1   
    20    11    16 ar  
    21    13    14 ar  
    22    13    40 1   
    23    14    15 ar  
    24    14    17 1   
    25    15    16 ar  
    26    15    41 1   
    27    16    42 1   
    28    17    18 1   
    29    17    22 1   
    30    17    43 1   
    31    18    19 1   
    32    18    23 1   
    33    18    44 1   
    34    19    20 1   
    35    19    45 1   
    36    19    46 1   
    37    20    21 1   
    38    20    47 1   
    39    21    22 1   
    40    21    48 1   
    41    21    49 1   
    42    22    50 1   
    43    22    51 1   
    44    23    24 1   
    45    23    52 1   
    46    23    53 1   
    47    24    25 1   
    48    25    26 ar  
    49    25    33 ar  
    50    26    27 ar  
    51    26    54 1   
    52    27    28 1   
    53    27    31 ar  
    54    28    29 1   
    55    29    30 1   
    56    29    55 1   
    57    29    58 1   
    58    30    31 1   
    59    31    32 ar  
    60    32    33 ar  
    61    32    56 1   
    62    33    57 1   
@<TRIPOS>SUBSTRUCTURE
     1 T0E         1 TEMP              0 ****  ****    0 ROOT
