@<TRIPOS>MOLECULE
molecule
   58    62     1     0     0
SMALL
bcc


@<TRIPOS>ATOM
      1 O            0.0000     0.0000     0.0000 o          1 T0E      -0.587100
      2 C6           1.2160     0.0000     0.0000 c          1 T0E       0.673700
      3 N            1.8910     0.0000     1.1660 ns         1 T0E      -0.588900
      4 C7           1.1590    -0.0000     2.4350 c3         1 T0E       0.182300
      5 C8           2.1390     0.0000     3.5800 cc         1 T0E      -0.106600
      6 N2           2.7320    -1.0850     4.1190 na         1 T0E      -0.039600
      7 N1           3.5680    -0.6490     5.1560 nc         1 T0E      -0.501800
      8 C10          3.4770     0.6530     5.2350 cd         1 T0E       0.332200
      9 C9           2.5860     1.0890     4.2480 cd         1 T0E      -0.331300
     10 C5           1.9540    -0.0060    -1.2800 ca         1 T0E      -0.189600
     11 C            1.2570    -0.0120    -2.4920 ca         1 T0E       0.197900
     12 F           -0.0940    -0.0120    -2.4980 f          1 T0E      -0.105900
     13 C4           3.3500    -0.0010    -1.2850 ca         1 T0E      -0.083000
     14 C3           4.0330    -0.0070    -2.4820 ca         1 T0E      -0.111300
     15 C2           3.3380    -0.0190    -3.6810 ca         1 T0E      -0.072000
     16 C1           1.9560    -0.0180    -3.6850 ca         1 T0E      -0.177000
     17 C11          5.5400     0.0000    -2.4890 c3         1 T0E      -0.019400
     18 C15          6.0540    -1.2510    -3.2050 c3         1 T0E      -0.060700
     19 C14          7.5830    -1.2090    -3.2620 c3         1 T0E       0.162800
     20 N3           8.0140    -0.0010    -3.9770 n7         1 T0E      -0.818200
     21 C13          7.5720     1.2140    -3.2810 c3         1 T0E       0.154800
     22 C12          6.0430     1.2450    -3.2240 c3         1 T0E      -0.068400
     23 C16          5.6060    -2.4980    -2.4410 c3         1 T0E       0.139400
     24 O1           5.9850    -3.6670    -3.1710 os         1 T0E      -0.326900
     25 C17          5.6590    -4.8690    -2.6260 ca         1 T0E       0.150100
     26 C23          5.9970    -6.0420    -3.2820 ca         1 T0E      -0.148000
     27 C22          5.6650    -7.2670    -2.7270 ca         1 T0E       0.088100
     28 O3           5.8790    -8.5440    -3.1590 os         1 T0E      -0.324900
     29 C21          4.9710    -9.3650    -2.4000 c3         1 T0E       0.332200
     30 O2           4.7820    -8.6250    -1.1790 os         1 T0E      -0.326900
     31 C20          4.9910    -7.3170    -1.5090 ca         1 T0E       0.010100
     32 C19          4.6550    -6.1410    -0.8570 ca         1 T0E      -0.074000
     33 C18          4.9920    -4.9210    -1.4110 ca         1 T0E      -0.222000
     34 H1           2.8910     0.0360     1.1660 hn         1 T0E       0.319500
     35 H2           0.5360    -0.8850     2.4930 h1         1 T0E       0.069700
     36 H3           0.5360     0.8840     2.4930 h1         1 T0E       0.069700
     37 H4           2.6000    -2.0340     3.8300 hn         1 T0E       0.331700
     38 H5           4.0040     1.2860     5.9390 h4         1 T0E       0.051100
     39 H6           2.2990     2.1160     4.0570 ha         1 T0E       0.159000
     40 H7           3.8960     0.0090    -0.3490 ha         1 T0E       0.132000
     41 H8           3.8810    -0.0230    -4.6180 ha         1 T0E       0.148000
     42 H9           1.4200    -0.0250    -4.6260 ha         1 T0E       0.155000
     43 H10          5.9100     0.0090    -1.4710 hc         1 T0E       0.054700
     44 H11          5.6570    -1.2770    -4.2130 hc         1 T0E       0.082700
     45 H12          7.9480    -2.0850    -3.7840 h1         1 T0E       0.042200
     46 H13          7.9800    -1.1910    -2.2540 h1         1 T0E       0.042200
     47 H14          9.0120     0.0030    -4.0530 hn         1 T0E       0.359800
     48 H16          7.9290     2.0850    -3.8180 h1         1 T0E       0.034700
     49 H17          7.9700     1.2160    -2.2740 h1         1 T0E       0.034700
     50 H18          5.6440     1.2540    -4.2310 hc         1 T0E       0.055700
     51 H19          5.7200     2.1320    -2.6930 hc         1 T0E       0.055700
     52 H20          6.0780    -2.5130    -1.4660 h1         1 T0E       0.040200
     53 H21          4.5300    -2.4810    -2.3210 h1         1 T0E       0.040200
     54 H22          6.5260    -6.0020    -4.2270 ha         1 T0E       0.158000
     55 H23          5.4340   -10.3210    -2.1830 h2         1 T0E       0.072200
     56 H24          4.1340    -6.1790     0.0920 ha         1 T0E       0.143000
     57 H25          4.7380    -4.0030    -0.8940 ha         1 T0E       0.141000
     58 H15          4.0290    -9.4550    -2.9260 h2         1 T0E       0.072200
@<TRIPOS>BOND
     1    20    21 1
     2    20    19 1
     3    21    22 1
     4    19    18 1
     5    22    17 1
     6    18    23 1
     7    18    17 1
     8    33    32 ar
     9    33    25 ar
    10    32    31 ar
    11    24    23 1
    12    24    25 1
    13    17    14 1
    14    25    26 ar
    15    31    30 1
    16    31    27 ar
    17    30    29 1
    18    26    27 ar
    19    27    28 1
    20    29    28 1
    21    14    13 ar
    22    14    15 ar
    23    13    10 ar
    24    15    16 ar
    25    10     2 1
    26    10    11 ar
    27    16    11 ar
    28     3     4 1
    29     3     2 1
    30     4     5 1
    31     2     1 2
    32    11    12 1
    33     6     5 1
    34     6     7 1
    35     5     9 2
    36     7     8 2
    37     9     8 1
    38     3    34 1
    39     4    35 1
    40     4    36 1
    41     6    37 1
    42     8    38 1
    43     9    39 1
    44    13    40 1
    45    15    41 1
    46    16    42 1
    47    17    43 1
    48    18    44 1
    49    19    45 1
    50    19    46 1
    51    20    47 1
    52    21    48 1
    53    21    49 1
    54    22    50 1
    55    22    51 1
    56    23    52 1
    57    23    53 1
    58    26    54 1
    59    29    55 1
    60    32    56 1
    61    33    57 1
    62    29    58 1
@<TRIPOS>SUBSTRUCTURE
     1 T0E         1 TEMP              0 ****  ****    0 ROOT
