@<TRIPOS>MOLECULE
molecule
   57    59     1     0     0
SMALL
bcc


@<TRIPOS>ATOM
      1 C11          0.0000     0.0000     0.0000 ca         1 T0R      -0.194000
      2 C14         -1.1430    -2.4080     4.2000 ca         1 T0R      -0.115000
      3 Cl          -4.7530     0.3230     6.3700 cl         1 T0R      -0.210400
      4 C9          -3.7620     0.5300     4.8780 c3         1 T0R       0.057000
      5 C4          -2.3580     1.0050     5.2600 c3         1 T0R      -0.050200
      6 C2          -1.4940     1.0610     4.0270 ce         1 T0R      -0.069400
      7 C6          -1.4790     2.2740     3.1950 ca         1 T0R      -0.049800
      8 C16         -2.6340     2.6750     2.5160 ca         1 T0R      -0.114000
      9 C22         -2.6120     3.8130     1.7380 ca         1 T0R      -0.127500
     10 C24         -1.4510     4.5590     1.6280 ca         1 T0R      -0.127000
     11 C21         -0.3040     4.1690     2.2970 ca         1 T0R      -0.127500
     12 C15         -0.3110     3.0370     3.0840 ca         1 T0R      -0.114000
     13 C1          -0.7310    -0.0050     3.6840 cf         1 T0R       0.004600
     14 C5          -0.6350    -1.1690     4.5930 ca         1 T0R      -0.053800
     15 C20         -1.0560    -3.4880     5.0540 ca         1 T0R      -0.127500
     16 C23         -0.4630    -3.3450     6.2960 ca         1 T0R      -0.125000
     17 C19          0.0470    -2.1200     6.6900 ca         1 T0R      -0.127500
     18 C13         -0.0380    -1.0320     5.8470 ca         1 T0R      -0.115000
     19 C3           0.0070    -0.0050     2.4020 ca         1 T0R      -0.095800
     20 C8           1.4020    -0.0110     2.3980 ca         1 T0R      -0.071500
     21 C12          2.0870     0.0000     1.2010 ca         1 T0R      -0.194000
     22 C10          1.3880     0.0000     0.0000 ca         1 T0R       0.149100
     23 C7          -0.6920     0.0000     1.1930 ca         1 T0R      -0.071500
     24 O            2.0660    -0.0010    -1.1770 os         1 T0R      -0.309900
     25 C18          1.2860    -0.0000    -2.3750 c3         1 T0R       0.142400
     26 C17          2.2160    -0.0010    -3.5900 c3         1 T0R       0.161800
     27 N            3.0040    -1.2420    -3.6020 n3         1 T0R      -0.719600
     28 C26          2.1700    -2.3910    -3.9760 c3         1 T0R       0.149100
     29 C25          4.1630    -1.1190    -4.4960 c3         1 T0R       0.149100
     30 H1          -0.5410     0.0020    -0.9390 ha         1 T0R       0.139500
     31 H2          -1.6070    -2.5210     3.2280 ha         1 T0R       0.134500
     32 H3          -3.7250    -0.4080     4.3360 h1         1 T0R       0.065200
     33 H4          -4.2090     1.2920     4.2510 h1         1 T0R       0.065200
     34 H5          -2.4190     1.9910     5.7030 hc         1 T0R       0.069200
     35 H6          -1.9250     0.3140     5.9730 hc         1 T0R       0.069200
     36 H7          -3.5440     2.0930     2.6010 ha         1 T0R       0.132000
     37 H8          -3.5060     4.1250     1.2120 ha         1 T0R       0.130000
     38 H9          -1.4400     5.4510     1.0130 ha         1 T0R       0.128000
     39 H10          0.6000     4.7590     2.2070 ha         1 T0R       0.130000
     40 H11          0.5880     2.7330     3.6070 ha         1 T0R       0.132000
     41 H12         -1.4510    -4.4500     4.7510 ha         1 T0R       0.131000
     42 H13         -0.3950    -4.1970     6.9620 ha         1 T0R       0.130000
     43 H14          0.5100    -2.0160     7.6630 ha         1 T0R       0.131000
     44 H15          0.3590    -0.0730     6.1570 ha         1 T0R       0.134500
     45 H16          1.9480    -0.0100     3.3340 ha         1 T0R       0.135500
     46 H17          3.1700    -0.0020     1.1980 ha         1 T0R       0.139500
     47 H18         -1.7750     0.0000     1.1920 ha         1 T0R       0.135500
     48 H19          0.6610     0.8840    -2.3990 h1         1 T0R       0.036200
     49 H20          0.6600    -0.8850    -2.3990 h1         1 T0R       0.036200
     50 H21          1.6260     0.0620    -4.4960 h1         1 T0R       0.045700
     51 H22          2.8840     0.8500    -3.5340 h1         1 T0R       0.045700
     52 H24          1.7700    -2.8530    -3.0820 h1         1 T0R       0.032700
     53 H25          1.3540    -2.0560    -4.6050 h1         1 T0R       0.032700
     54 H26          2.7700    -3.1120    -4.5180 h1         1 T0R       0.032700
     55 H27          4.7630    -2.0190    -4.4360 h1         1 T0R       0.032700
     56 H28          4.7600    -0.2660    -4.1980 h1         1 T0R       0.032700
     57 H29          3.8200    -0.9810    -5.5150 h1         1 T0R       0.032700
@<TRIPOS>BOND
     1    17    16 ar
     2    17    18 ar
     3    16    15 ar
     4    28    27 1
     5    18    14 ar
     6    27    29 1
     7    27    26 1
     8    15     2 ar
     9    25    26 1
    10    25    24 1
    11    24    22 1
    12    14     2 ar
    13    14    13 1
    14    22    21 ar
    15    22     1 ar
    16    21    20 ar
    17     1    23 ar
    18    20    19 ar
    19    23    19 ar
    20    19    13 1
    21    13     6 2
    22     6     5 1
    23     6     7 1
    24     5     4 1
    25     7     8 ar
    26     7    12 ar
    27     8     9 ar
    28     4     3 1
    29    12    11 ar
    30     9    10 ar
    31    11    10 ar
    32     1    30 1
    33     2    31 1
    34     4    32 1
    35     4    33 1
    36     5    34 1
    37     5    35 1
    38     8    36 1
    39     9    37 1
    40    10    38 1
    41    11    39 1
    42    12    40 1
    43    15    41 1
    44    16    42 1
    45    17    43 1
    46    18    44 1
    47    20    45 1
    48    21    46 1
    49    23    47 1
    50    25    48 1
    51    25    49 1
    52    26    50 1
    53    26    51 1
    54    28    52 1
    55    28    53 1
    56    28    54 1
    57    29    55 1
    58    29    56 1
    59    29    57 1
@<TRIPOS>SUBSTRUCTURE
     1 T0R         1 TEMP              0 ****  ****    0 ROOT
