@<TRIPOS>MOLECULE
T10
   62    64     1     0     0
SMALL
bcc


@<TRIPOS>ATOM
      1 O1           0.0000     0.0000     0.0000 oh         1 T10      -0.561800
      2 C6           1.4300     0.0000     0.0000 c3         1 T10       0.135400
      3 C7           1.9320     0.0000     1.4210 c          1 T10       0.575100
      4 O8           1.1470     0.0000     2.3380 o          1 T10      -0.515100
      5 C9           3.4140     0.0000     1.6960 c3         1 T10      -0.074300
      6 C10          3.9830    -1.3930     1.4220 c3         1 T10       0.031900
      7 C11          5.4810    -1.3620     1.5790 ca         1 T10      -0.106300
      8 C12          6.0540    -1.6230     2.8100 ca         1 T10      -0.096500
      9 C13          7.4290    -1.5950     2.9530 ca         1 T10      -0.091500
     10 C14          8.2310    -1.3070     1.8650 ca         1 T10      -0.094000
     11 C15          7.6590    -1.0470     0.6340 ca         1 T10      -0.091500
     12 C16          6.2840    -1.0790     0.4900 ca         1 T10      -0.096500
     13 N17          3.6500     0.3580     3.0960 ns         1 T10      -0.161900
     14 C18          3.7140     1.6550     3.4590 c          1 T10       0.574100
     15 O19          3.5740     2.5250     2.6270 o          1 T10      -0.653100
     16 C20          3.9570     2.0230     4.9000 c3         1 T10      -0.038300
     17 C21          2.8350     1.4500     5.7700 c3         1 T10       0.017900
     18 C22          3.1420     1.7120     7.2210 ca         1 T10      -0.080300
     19 C23          2.6980     2.8760     7.8220 ca         1 T10      -0.088000
     20 C24          2.9800     3.1160     9.1540 ca         1 T10      -0.091500
     21 C25          3.7030     2.1930     9.8860 ca         1 T10      -0.096000
     22 C26          4.1440     1.0280     9.2850 ca         1 T10      -0.091500
     23 C27          3.8610     0.7870     7.9550 ca         1 T10      -0.088000
     24 N28          3.9820     3.4810     5.0340 ns         1 T10      -0.153900
     25 C29          4.6550     4.0540     6.0520 c          1 T10       0.680100
     26 O30          5.2400     3.3600     6.8600 o          1 T10      -0.661000
     27 O31          4.6780     5.3950     6.1750 os         1 T10      -0.426900
     28 C32          5.4020     6.0110     7.2730 c3         1 T10       0.307700
     29 C33          5.2710     7.5090     7.1820 ca         1 T10      -0.118300
     30 C34          4.2250     8.1520     7.8170 ca         1 T10      -0.074500
     31 C35          4.1060     9.5250     7.7340 ca         1 T10      -0.107000
     32 C36          5.0320    10.2580     7.0160 ca         1 T10      -0.091000
     33 C37          6.0790     9.6160     6.3820 ca         1 T10      -0.107000
     34 C38          6.2010     8.2420     6.4680 ca         1 T10      -0.074500
     35 HO1         -0.3140    -0.0000    -0.8890 ho         1 T10       0.390000
     36 HC61         1.7900     0.8840    -0.5110 h1         1 T10       0.005700
     37 HC62         1.7900    -0.8840    -0.5110 h1         1 T10       0.005700
     38 HC9          3.9010     0.7220     1.0510 h1         1 T10       0.074700
     39 H101         3.5610    -2.1000     2.1260 hc         1 T10       0.030200
     40 H102         3.7310    -1.6950     0.4130 hc         1 T10       0.030200
     41 H12          5.4250    -1.8490     3.6620 ha         1 T10       0.103000
     42 H13          7.8770    -1.7990     3.9170 ha         1 T10       0.105500
     43 H14          9.3080    -1.2830     1.9770 ha         1 T10       0.106000
     44 H15          8.2880    -0.8230    -0.2190 ha         1 T10       0.105500
     45 H16          5.8360    -0.8750    -0.4750 ha         1 T10       0.103000
     46 H17          3.7540    -0.3600     3.7860 hn         1 T10       0.186500
     47 H20          4.9070     1.6140     5.2220 h1         1 T10       0.069700
     48 H211         1.8970     1.9250     5.5080 hc         1 T10       0.028700
     49 H212         2.7580     0.3830     5.6040 hc         1 T10       0.028700
     50 H23          2.1310     3.5990     7.2490 ha         1 T10       0.099000
     51 H24          2.6330     4.0280     9.6250 ha         1 T10       0.097500
     52 H25          3.9250     2.3820    10.9290 ha         1 T10       0.098000
     53 H26          4.7100     0.3040     9.8590 ha         1 T10       0.097500
     54 H27          4.2060    -0.1260     7.4840 ha         1 T10       0.099000
     55 H28          3.5290     4.0540     4.3490 hn         1 T10       0.200500
     56 H321         4.9900     5.6680     8.2140 h1         1 T10       0.012200
     57 H322         6.4480     5.7350     7.2150 h1         1 T10       0.012200
     58 H34          3.4990     7.5780     8.3800 ha         1 T10       0.106500
     59 H35          3.2850    10.0280     8.2320 ha         1 T10       0.103000
     60 H36          4.9370    11.3350     6.9500 ha         1 T10       0.101000
     61 H37          6.8070    10.1900     5.8200 ha         1 T10       0.103000
     62 H38          7.0210     7.7380     5.9710 ha         1 T10       0.106500
@<TRIPOS>BOND
     1     1     2 1   
     2     1    35 1   
     3     2     3 1   
     4     2    36 1   
     5     2    37 1   
     6     3     4 2   
     7     3     5 1   
     8     5     6 1   
     9     5    13 1   
    10     5    38 1   
    11     6     7 1   
    12     6    39 1   
    13     6    40 1   
    14     7     8 ar  
    15     7    12 ar  
    16     8     9 ar  
    17     8    41 1   
    18     9    10 ar  
    19     9    42 1   
    20    10    11 ar  
    21    10    43 1   
    22    11    12 ar  
    23    11    44 1   
    24    12    45 1   
    25    13    14 1   
    26    13    46 1   
    27    14    15 2   
    28    14    16 1   
    29    16    17 1   
    30    16    24 1   
    31    16    47 1   
    32    17    18 1   
    33    17    48 1   
    34    17    49 1   
    35    18    19 ar  
    36    18    23 ar  
    37    19    20 ar  
    38    19    50 1   
    39    20    21 ar  
    40    20    51 1   
    41    21    22 ar  
    42    21    52 1   
    43    22    23 ar  
    44    22    53 1   
    45    23    54 1   
    46    24    25 1   
    47    24    55 1   
    48    25    26 2   
    49    25    27 1   
    50    27    28 1   
    51    28    29 1   
    52    28    56 1   
    53    28    57 1   
    54    29    30 ar  
    55    29    34 ar  
    56    30    31 ar  
    57    30    58 1   
    58    31    32 ar  
    59    31    59 1   
    60    32    33 ar  
    61    32    60 1   
    62    33    34 ar  
    63    33    61 1   
    64    34    62 1   
@<TRIPOS>SUBSTRUCTURE
     1 T10         1 TEMP              0 ****  ****    0 ROOT
