@<TRIPOS>MOLECULE
molecule
   56    58     1     0     0
SMALL
bcc


@<TRIPOS>ATOM
      1 O56          0.0000     0.0000     0.0000 o          1 T12      -0.201000
      2 N54          1.2540     0.0000     0.0000 no         1 T12       0.276200
      3 O55          1.9200     0.0000     1.0640 o          1 T12      -0.201000
      4 C13          1.9420    -0.0030    -1.2420 ca         1 T12      -0.170200
      5 C12          1.2220    -0.0040    -2.4380 ca         1 T12      -0.038000
      6 C11          1.8960    -0.0060    -3.6580 ca         1 T12      -0.144000
      7 C10          3.2910    -0.0070    -3.6840 ca         1 T12      -0.020000
      8 C14          3.3360    -0.0040    -1.2690 ca         1 T12      -0.042000
      9 C15          3.9920    -0.0060    -2.4890 ca         1 T12      -0.155600
     10 C51          5.4650    -0.0070    -2.5180 c          1 T12       0.692700
     11 O53          6.0810     0.4970    -3.4540 o          1 T12      -0.500100
     12 N50          6.1060    -0.5880    -1.3870 ns         1 T12      -0.494400
     13 C21          7.4470    -0.7030    -1.1140 cc         1 T12       0.502400
     14 N22          8.4380    -0.2840    -1.8680 nd         1 T12      -0.576100
     15 C3           9.5800    -0.6220    -1.1790 ca         1 T12       0.098400
     16 C4          10.9300    -0.4190    -1.5100 ca         1 T12      -0.072000
     17 C5          11.9420    -0.8620    -0.6240 ca         1 T12       0.064100
     18 O23         13.2280    -0.6770    -0.9210 os         1 T12      -0.317200
     19 C24         13.7980    -1.7000    -1.6240 c          1 T12       0.633100
     20 O26         13.2360    -2.7250    -1.9950 o          1 T12      -0.501000
     21 C25         15.2720    -1.3840    -1.9090 c3         1 T12      -0.116000
     22 C35         16.0220    -1.2050    -0.5830 c3         1 T12      -0.079433
     23 C31         15.8930    -2.5250    -2.7270 c3         1 T12      -0.079433
     24 C27         15.3710    -0.0800    -2.7180 c3         1 T12      -0.079433
     25 C6          11.5640    -1.5020     0.5760 ca         1 T12      -0.119000
     26 C2           9.2640    -1.2590     0.0190 ca         1 T12      -0.072200
     27 C1          10.2250    -1.7130     0.9230 ca         1 T12      -0.120000
     28 N20          7.8930    -1.2960     0.0330 na         1 T12      -0.177300
     29 C39          7.0750    -1.8650     1.0820 c3         1 T12       0.047300
     30 C40          6.7540    -3.3450     0.8780 c3         1 T12      -0.113400
     31 C43          5.9420    -3.9490     2.0180 c3         1 T12       0.148400
     32 O46          5.6820    -5.3140     1.7180 oh         1 T12      -0.604800
     33 H12          0.1390    -0.0030    -2.4170 ha         1 T12       0.175000
     34 H11          1.3370    -0.0070    -4.5860 ha         1 T12       0.160000
     35 H10          3.8210    -0.0090    -4.6290 ha         1 T12       0.172000
     36 H14          3.9010    -0.0030    -0.3440 ha         1 T12       0.166000
     37 HN50         5.4920    -0.9650    -0.6930 hn         1 T12       0.318500
     38 H4          11.1910     0.1720    -2.3800 ha         1 T12       0.155000
     39 H351        15.7220    -0.2720    -0.1210 hc         1 T12       0.045256
     40 H352        17.0890    -1.1890    -0.7700 hc         1 T12       0.045256
     41 H353        15.7850    -2.0280     0.0800 hc         1 T12       0.045256
     42 H311        15.3560    -2.6330    -3.6620 hc         1 T12       0.045256
     43 H312        15.8290    -3.4490    -2.1650 hc         1 T12       0.045256
     44 H313        16.9320    -2.2980    -2.9320 hc         1 T12       0.045256
     45 H271        16.3810     0.0360    -3.0940 hc         1 T12       0.045256
     46 H272        14.6790    -0.1180    -3.5500 hc         1 T12       0.045256
     47 H273        15.1240     0.7610    -2.0810 hc         1 T12       0.045256
     48 H6          12.3380    -1.8410     1.2540 ha         1 T12       0.138000
     49 H1           9.9480    -2.2050     1.8470 ha         1 T12       0.139000
     50 H391         7.5950    -1.7510     2.0250 h1         1 T12       0.056700
     51 H392         6.1440    -1.3130     1.1310 h1         1 T12       0.056700
     52 H401         6.1940    -3.4550    -0.0430 hc         1 T12       0.067200
     53 H402         7.6840    -3.8930     0.7870 hc         1 T12       0.067200
     54 H431         6.5040    -3.8800     2.9410 h1         1 T12       0.021200
     55 H432         5.0050    -3.4150     2.1200 h1         1 T12       0.021200
     56 HO46         5.1800    -5.7000     2.4180 ho         1 T12       0.410000
@<TRIPOS>BOND
     1     1     2 1
     2     2     3 1
     3     2     4 1
     4     4     8 ar
     5     4     5 ar
     6     5     6 ar
     7     5    33 1
     8     6     7 ar
     9     6    34 1
    10     7     9 ar
    11     7    35 1
    12     8     9 ar
    13     8    36 1
    14     9    10 1
    15    10    12 1
    16    10    11 2
    17    12    13 1
    18    12    37 1
    19    13    28 1
    20    13    14 2
    21    14    15 1
    22    15    16 ar
    23    15    26 ar
    24    16    17 ar
    25    16    38 1
    26    17    18 1
    27    17    25 ar
    28    18    19 1
    29    19    21 1
    30    19    20 2
    31    21    23 1
    32    21    24 1
    33    21    22 1
    34    22    39 1
    35    22    40 1
    36    22    41 1
    37    23    42 1
    38    23    43 1
    39    23    44 1
    40    24    45 1
    41    24    46 1
    42    24    47 1
    43    25    27 ar
    44    25    48 1
    45    26    27 ar
    46    26    28 1
    47    27    49 1
    48    28    29 1
    49    29    30 1
    50    29    50 1
    51    29    51 1
    52    30    31 1
    53    30    52 1
    54    30    53 1
    55    31    32 1
    56    31    54 1
    57    31    55 1
    58    32    56 1
@<TRIPOS>SUBSTRUCTURE
     1 T12         1 TEMP              0 ****  ****    0 ROOT
