@<TRIPOS>MOLECULE
molecule
   31    32     1     0     0
SMALL
bcc


@<TRIPOS>ATOM
      1 CAA          0.0000     0.0000     0.0000 c3         1 T13       0.126700
      2 OAN          1.4290     0.0000     0.0000 os         1 T13      -0.314900
      3 CAV          2.0470     0.0000     1.2120 ca         1 T13       0.103100
      4 CAP          3.4330     0.0000     1.2850 ca         1 T13       0.118900
      5 CAL          4.0610     0.0000     2.5180 ca         1 T13      -0.151000
      6 FAD          4.1700     0.0010     0.1530 f          1 T13      -0.124900
      7 CAK          1.2910     0.0040     2.3740 ca         1 T13      -0.180000
      8 CAJ          1.9170     0.0040     3.6070 ca         1 T13      -0.130000
      9 CAO          3.3040    -0.0000     3.6810 ca         1 T13       0.104600
     10 NAM          3.9370    -0.0010     4.9290 nu         1 T13      -0.762500
     11 SAX          3.4290     1.0360     6.1160 sy         1 T13       1.425200
     12 OAB          2.0240     0.8560     6.2320 o          1 T13      -0.607800
     13 OAC          4.3260     0.8680     7.2060 o          1 T13      -0.607800
     14 CAW          3.6740     2.6750     5.5170 ca         1 T13      -0.374500
     15 CAT          2.6280     3.3550     4.9180 ca         1 T13       0.235400
     16 FAH          1.4200     2.7630     4.7920 f          1 T13      -0.081900
     17 CAR          2.8200     4.6450     4.4470 ca         1 T13       0.046900
     18 FAF          1.7980     5.3090     3.8630 f          1 T13      -0.099400
     19 CAQ          4.0580     5.2530     4.5760 ca         1 T13       0.161900
     20 FAE          4.2460     6.5100     4.1170 f          1 T13      -0.089900
     21 CAS          5.1050     4.5700     5.1760 ca         1 T13       0.046900
     22 FAG          6.3120     5.1610     5.3030 f          1 T13      -0.099400
     23 CAU          4.9090     3.2830     5.6520 ca         1 T13       0.235400
     24 FAI          5.9280     2.6200     6.2420 f          1 T13      -0.081900
     25 HAA         -0.3610     0.8860     0.5080 h1         1 T13       0.045367
     26 HAAA        -0.3610    -0.0030    -1.0210 h1         1 T13       0.045367
     27 HAAB        -0.3610    -0.8830     0.5130 h1         1 T13       0.045367
     28 HAL          5.1420    -0.0010     2.5750 ha         1 T13       0.155000
     29 HAK          0.2090     0.0070     2.3160 ha         1 T13       0.153000
     30 HAJ          1.3260     0.0050     4.5140 ha         1 T13       0.186000
     31 HNAM         4.6750    -0.6510     5.1160 hn         1 T13       0.472800
@<TRIPOS>BOND
     1     1     2 1
     2     2     3 1
     3     3     4 ar
     4     3     7 ar
     5     4     5 ar
     6     4     6 1
     7     5     9 ar
     8     7     8 ar
     9     8     9 ar
    10     9    10 1
    11    10    11 1
    12    11    12 2
    13    11    13 2
    14    11    14 1
    15    14    15 ar
    16    14    23 ar
    17    15    16 1
    18    15    17 ar
    19    17    18 1
    20    17    19 ar
    21    19    20 1
    22    19    21 ar
    23    21    22 1
    24    21    23 ar
    25    23    24 1
    26     1    25 1
    27     1    26 1
    28     1    27 1
    29     5    28 1
    30     7    29 1
    31     8    30 1
    32    10    31 1
@<TRIPOS>SUBSTRUCTURE
     1 T13         1 TEMP              0 ****  ****    0 ROOT
