@<TRIPOS>MOLECULE
T15
   75    76     1     0     0
SMALL
bcc


@<TRIPOS>ATOM
      1 C1         -0.4050    3.2940   -1.1510 ca        1 T15     -0.111000
      2 C2          0.5060    2.3820   -0.6220 ca        1 T15     -0.092500
      3 C3          1.7990    2.8050   -0.2790 ca        1 T15     -0.217300
      4 C4          2.1570    4.1540   -0.4270 ca        1 T15     -0.092500
      5 C5          1.2410    5.0600   -0.9570 ca        1 T15     -0.111000
      6 C6         -0.0400    4.6320   -1.3190 ca        1 T15     -0.051000
      7 C7          2.7610    1.8420    0.3380 c3        1 T15     -0.363800
      8 S8          3.6220    1.1970   -0.8920 s4        1 T15      1.580500
      9 N9          4.9150   -0.2280    0.5530 nh        1 T15     -0.862600
     10 C10         6.9680   -1.4960   -0.0550 c         1 T15      0.701700
     11 N11         7.5790   -2.4850   -0.8570 n         1 T15     -0.343000
     12 C12         6.8020   -3.3810   -1.6050 cc        1 T15      0.094400
     13 C13         5.4290   -3.2530   -1.6130 cd        1 T15     -0.202000
     14 C14         4.7770   -2.2120   -0.9060 cd        1 T15      0.034000
     15 O15         7.7080   -0.8190    0.7070 o         1 T15     -0.725500
     16 C16         7.4550   -4.4680   -2.3920 c3        1 T15     -0.100900
     17 C17         9.0110   -2.4520   -0.9970 c3        1 T15      0.026000
     18 C18         9.7540   -3.1920    0.1210 c         1 T15      0.519100
     19 C19         5.5120   -1.3270   -0.1460 cc        1 T15     -0.137200
     20 N20        10.0100   -2.4220    1.3890 n4        1 T15     -0.691800
     21 C22        11.7110   -1.5010    2.8970 cc        1 T15     -0.342900
     22 N23        12.4330   -1.9930    4.0150 na        1 T15     -0.233900
     23 C24        12.3680   -0.9740    4.9920 cc        1 T15      0.469400
     24 N25        11.6560    0.0820    4.5700 nd        1 T15     -0.604000
     25 C26        11.2450   -0.2140    3.2630 cd        1 T15      0.423600
     26 C28        13.2250   -3.1690    4.1090 c3        1 T15     -0.014700
     27 C29        14.5460   -3.0820    3.3200 c         1 T15      0.509100
     28 N30        15.8250   -2.9570    4.0730 n4        1 T15     -0.681800
     29 C31        16.5060   -4.3130    4.3920 c3        1 T15      0.169200
     30 C32        16.9520   -4.9740    3.0900 c3        1 T15     -0.137767
     31 C33        17.7270   -4.0230    5.2670 c3        1 T15     -0.137767
     32 C34        15.5340   -5.2140    5.1450 c3        1 T15     -0.137767
     33 O35        14.6010   -3.1120    2.0980 o         1 T15     -0.410100
     34 O36        10.1750   -4.3350    0.0700 o         1 T15     -0.386100
     35 O37         3.0870    0.1420   -1.5540 o         1 T15     -0.410400
     36 O38         4.7240    1.8620   -1.3120 o         1 T15     -0.410400
     37 C8         10.4440    0.7000    2.4290 c3        1 T15     -0.161400
     38 C9         11.4830   -2.1900    1.6150 c3        1 T15      0.218100
     39 H1         -1.4200    2.9600   -1.4240 ha        1 T15      0.174500
     40 H2          0.2000    1.3350   -0.4680 ha        1 T15      0.146000
     41 H4          3.1540    4.5060   -0.1190 ha        1 T15      0.146000
     42 H5          1.5230    6.1190   -1.0770 ha        1 T15      0.174500
     43 H6         -0.7670    5.3550   -1.7300 ha        1 T15      0.177000
     44 H7          2.1640    1.1020    0.9530 h1        1 T15      0.182700
     45 H7A         3.3680    2.4050    1.1110 h1        1 T15      0.182700
     46 HN9         5.6460    0.3510    0.9480 hn        1 T15      0.413800
     47 H13         4.8170   -3.9670   -2.1930 ha        1 T15      0.204000
     48 H14         3.6750   -2.1300   -0.9990 ha        1 T15      0.194000
     49 H16         6.6920   -5.2400   -2.6740 hc        1 T15      0.091700
     50 H16A        7.8890   -4.0550   -3.3400 hc        1 T15      0.091700
     51 H16B        8.2630   -4.9800   -1.8100 hc        1 T15      0.091700
     52 H17         9.3580   -1.3740   -1.0210 h1        1 T15      0.135700
     53 H17A        9.3280   -2.9500   -1.9660 h1        1 T15      0.135700
     54 HN20        9.6290   -2.9480    2.1860 hn        1 T15      0.480300
     55 H24        12.8180   -1.0740    5.9920 h5        1 T15      0.096100
     56 H28        12.6730   -4.0520    3.6630 h1        1 T15      0.119700
     57 H28A       13.4250   -3.3940    5.1990 h1        1 T15      0.119700
     58 HN30       15.6650   -2.4680    4.9590 hn        1 T15      0.467800
     59 H32        17.4170   -5.9630    3.3400 hc        1 T15      0.085589
     60 H32A       16.0900   -5.1570    2.4030 hc        1 T15      0.085589
     61 H32B       17.7210   -4.3590    2.5610 hc        1 T15      0.085589
     62 H33        18.2380   -4.9970    5.4840 hc        1 T15      0.085589
     63 H33A       18.4630   -3.3630    4.7460 hc        1 T15      0.085589
     64 H33B       17.4370   -3.5630    6.2440 hc        1 T15      0.085589
     65 H34        14.6380   -5.4600    4.5260 hc        1 T15      0.085589
     66 H34A       15.2120   -4.7580    6.1130 hc        1 T15      0.085589
     67 H34B       16.0620   -6.1760    5.3820 hc        1 T15      0.085589
     68 H8         10.7290    0.5900    1.3530 hc        1 T15      0.078700
     69 H8A         9.3510    0.4780    2.5450 hc        1 T15      0.078700
     70 H8B        10.6080    1.7680    2.7320 hc        1 T15      0.078700
     71 H9         12.0080   -3.1880    1.5560 hx        1 T15      0.118200
     72 H9A        11.8470   -1.5370    0.7650 hx        1 T15      0.118200
     73 H92         4.3470   -0.5850    1.3090 hn        1 T15      0.413800
     74 H202        9.5190   -1.5070    1.3500 hn        1 T15      0.480300
     75 H302       16.4980   -2.4170    3.5080 hn        1 T15      0.467800
@<TRIPOS>BOND
     1    1    2 ar
     2    1    6 ar
     3    1   39 1
     4    2    3 ar
     5    2   40 1
     6    3    4 ar
     7    3    7 1
     8    4    5 ar
     9    4   41 1
    10    5    6 ar
    11    5   42 1
    12    6   43 1
    13    7    8 1
    14    7   44 1
    15    7   45 1
    16    8   35 1
    17    8   36 1
    18    9   19 1
    19    9   46 1
    20    9   73 1
    21   10   11 1
    22   10   15 2
    23   10   19 1
    24   11   12 1
    25   11   17 1
    26   12   13 2
    27   12   16 1
    28   13   14 1
    29   13   47 1
    30   14   19 2
    31   14   48 1
    32   16   49 1
    33   16   50 1
    34   16   51 1
    35   17   18 1
    36   17   52 1
    37   17   53 1
    38   18   20 1
    39   18   34 2
    40   20   38 1
    41   20   54 1
    42   20   74 1
    43   21   22 1
    44   21   25 2
    45   21   38 1
    46   22   23 1
    47   22   26 1
    48   23   24 2
    49   23   55 1
    50   24   25 1
    51   25   37 1
    52   26   27 1
    53   26   56 1
    54   26   57 1
    55   27   28 1
    56   27   33 2
    57   28   29 1
    58   28   58 1
    59   28   75 1
    60   29   30 1
    61   29   31 1
    62   29   32 1
    63   30   59 1
    64   30   60 1
    65   30   61 1
    66   31   62 1
    67   31   63 1
    68   31   64 1
    69   32   65 1
    70   32   66 1
    71   32   67 1
    72   37   68 1
    73   37   69 1
    74   37   70 1
    75   38   71 1
    76   38   72 1
@<TRIPOS>SUBSTRUCTURE
     1 T15         1 TEMP              0 ****  ****    0 ROOT
