@<TRIPOS>MOLECULE
T18
   57    61     1     0     0
SMALL
bcc


@<TRIPOS>ATOM
      1 C1           0.0000     0.0000     0.0000 ca         1 T18      -0.075000
      2 C2           1.3890     0.0000     0.0000 ca         1 T18      -0.002400
      3 C3          -0.6950    -0.0040     1.1910 ca         1 T18      -0.152000
      4 C4           2.0770     0.0000     1.2070 ca         1 T18       0.017000
      5 C5          -0.0110    -0.0060     2.4030 ca         1 T18       0.068600
      6 C6           1.3800    -0.0010     2.3950 ca         1 T18      -0.148500
      7 S7           2.2430     0.0120     3.9360 sy         1 T18       0.952200
      8 C8           1.0330     0.4320     5.1520 ce         1 T18      -0.241100
      9 C9          -0.2590     0.3640     4.8310 cf         1 T18       0.161000
     10 N10         -0.7290    -0.0240     3.5940 nu         1 T18      -0.185400
     11 N11          2.0920     0.0010    -1.2100 nu         1 T18      -0.407500
     12 S12          1.6310     1.0140    -2.4350 s6         1 T18       0.953900
     13 C13          1.9280     2.6810    -1.7800 c3         1 T18       0.016700
     14 O14          2.5380     0.7250    -3.4900 o          1 T18      -0.586300
     15 O15          0.2380     0.7780    -2.5810 o          1 T18      -0.586300
     16 O16          2.6330    -1.3300     4.1950 o          1 T18      -0.585300
     17 O17          3.1590     1.0980     3.8800 o          1 T18      -0.585300
     18 C18         -3.2530     3.8540     8.9890 ca         1 T18       0.075900
     19 C19         -4.1600     2.8720     9.3680 ca         1 T18      -0.065000
     20 C20         -4.1220     1.6200     8.7930 ca         1 T18      -0.151000
     21 C21         -2.2990     3.5870     8.0300 ca         1 T18      -0.063000
     22 C22         -2.2500     2.3210     7.4380 ca         1 T18      -0.144800
     23 C23         -3.1690     1.3300     7.8230 ca         1 T18      -0.047400
     24 N24         -3.1180     0.0800     7.2380 n          1 T18       0.091000
     25 C25         -2.2050    -0.2200     6.3010 c          1 T18       0.628700
     26 C26         -1.2500     0.7290     5.8650 cd         1 T18      -0.248200
     27 C27         -1.2480     2.0050     6.4130 cc         1 T18       0.258900
     28 O29         -0.3460     2.9320     6.0150 oh         1 T18      -0.471100
     29 C30         -4.0840    -0.9430     7.6510 c3         1 T18       0.072300
     30 O31         -2.1990    -1.3370     5.8130 o          1 T18      -0.698500
     31 C32         -5.3100    -0.8570     6.7800 ca         1 T18      -0.148300
     32 C33         -5.3800    -1.5910     5.6110 ca         1 T18      -0.061500
     33 C34         -7.5620    -0.6980     5.1820 ca         1 T18       0.116900
     34 C35         -7.4930     0.0330     6.3560 ca         1 T18      -0.133000
     35 C36         -6.5050    -1.5120     4.8110 ca         1 T18      -0.133000
     36 C37         -6.3670    -0.0470     7.1540 ca         1 T18      -0.061500
     37 F38         -8.6620    -0.6210     4.4020 f          1 T18      -0.124900
     38 H1          -0.5390    -0.0000    -0.9390 ha         1 T18       0.170000
     39 H3          -1.7790    -0.0040     1.1830 ha         1 T18       0.113000
     40 H4           3.1610    -0.0000     1.2140 ha         1 T18       0.118000
     41 HN10        -1.6750    -0.3480     3.5500 hn         1 T18       0.298800
     42 HN11         2.8580    -0.6300    -1.3450 hn         1 T18       0.352800
     43 H13          2.0310     3.3780    -2.6030 h1         1 T18       0.065033
     44 H13A         2.8360     2.6800    -1.1910 h1         1 T18       0.065033
     45 H13B         1.0930     2.9780    -1.1580 h1         1 T18       0.065033
     46 H19         -4.9050     3.0930    10.1230 ha         1 T18       0.122000
     47 H20         -4.8350     0.8620     9.0970 ha         1 T18       0.136000
     48 H21         -1.5930     4.3540     7.7350 ha         1 T18       0.130000
     49 HO29        -0.7720     3.5700     5.4670 ho         1 T18       0.417000
     50 H30         -4.3630    -0.7790     8.6850 h1         1 T18       0.053200
     51 H30A        -3.6360    -1.9240     7.5490 h1         1 T18       0.053200
     52 H33         -4.5530    -2.2280     5.3210 ha         1 T18       0.122500
     53 H35         -8.3200     0.6690     6.6480 ha         1 T18       0.123000
     54 H36         -6.5590    -2.0860     3.8940 ha         1 T18       0.123000
     55 H37         -6.3120     0.5250     8.0720 ha         1 T18       0.122500
     56 H8           1.3270     0.5630     6.1870 h4         1 T18       0.169000
     57 F28         -3.3080     5.0770     9.5610 f          1 T18      -0.120900
@<TRIPOS>BOND
     1     1     2 ar  
     2     1     3 ar  
     3     1    38 1   
     4     2     4 ar  
     5     2    11 1   
     6     3     5 ar  
     7     3    39 1   
     8     4     6 ar  
     9     4    40 1   
    10     5     6 ar  
    11     5    10 1   
    12     6     7 1   
    13     7     8 1   
    14     7    16 2   
    15     7    17 2   
    16     8     9 2   
    17     8    56 1   
    18     9    10 1   
    19     9    26 1   
    20    10    41 1   
    21    11    12 1   
    22    11    42 1   
    23    12    13 1   
    24    12    14 2   
    25    12    15 2   
    26    13    43 1   
    27    13    44 1   
    28    13    45 1   
    29    18    19 ar  
    30    18    21 ar  
    31    18    57 1   
    32    19    20 ar  
    33    19    46 1   
    34    20    23 ar  
    35    20    47 1   
    36    21    22 ar  
    37    21    48 1   
    38    22    23 ar  
    39    22    27 1   
    40    23    24 1   
    41    24    25 1   
    42    24    29 1   
    43    25    26 1   
    44    25    30 2   
    45    26    27 2   
    46    27    28 1   
    47    28    49 1   
    48    29    31 1   
    49    29    50 1   
    50    29    51 1   
    51    31    32 ar  
    52    31    36 ar  
    53    32    35 ar  
    54    32    52 1   
    55    33    34 ar  
    56    33    35 ar  
    57    33    37 1   
    58    34    36 ar  
    59    34    53 1   
    60    35    54 1   
    61    36    55 1   
@<TRIPOS>SUBSTRUCTURE
     1 T18         1 TEMP              0 ****  ****    0 ROOT
