@<TRIPOS>MOLECULE
T1D
   36    38     1     0     0
SMALL
bcc


@<TRIPOS>ATOM
      1 O            0.0000     0.0000     0.0000 o          1 T1D      -0.624500
      2 C            1.2140     0.0000     0.0000 c          1 T1D       0.648500
      3 N            1.9340     0.0000     1.1310 ns         1 T1D      -0.282300
      4 S            3.5410    -0.0070     0.6900 s6         1 T1D       1.104500
      5 O1           4.0660     1.2580     1.0620 o          1 T1D      -0.560300
      6 O2           4.0550    -1.2770     1.0690 o          1 T1D      -0.560300
      7 N1           3.4590     0.0000    -0.9780 nh         1 T1D      -0.354900
      8 C1           2.0170     0.0000    -1.2600 c3         1 T1D       0.109800
      9 C2           4.5170    -0.0010    -1.8930 ca         1 T1D       0.046600
     10 C3           4.9740     1.1940    -2.4260 ca         1 T1D      -0.048000
     11 C4           6.0280     1.1890    -3.3380 cp         1 T1D      -0.068000
     12 C5           6.6220    -0.0160    -3.7070 ca         1 T1D      -0.037000
     13 C6           6.1700    -1.2030    -3.1690 ca         1 T1D      -0.220000
     14 C7           5.1210    -1.2020    -2.2630 ca         1 T1D       0.140100
     15 O3           4.6780    -2.3750    -1.7350 os         1 T1D      -0.262900
     16 C8           5.4790    -3.4120    -2.3030 c3         1 T1D       0.216700
     17 C9           6.5150     2.4660    -3.9160 cp         1 T1D      -0.033000
     18 C10          6.8720     2.5340    -5.2610 ca         1 T1D      -0.095000
     19 C11          7.3250     3.7240    -5.7930 ca         1 T1D      -0.098000
     20 C12          7.4250     4.8480    -4.9930 ca         1 T1D      -0.100000
     21 C13          7.0730     4.7870    -3.6570 ca         1 T1D      -0.098000
     22 C14          6.6140     3.6030    -3.1160 ca         1 T1D      -0.095000
     23 H            1.5750     0.0040     2.0650 hn         1 T1D       0.260500
     24 H1           1.7700    -0.8840    -1.8350 h1         1 T1D       0.049700
     25 H11A         1.7700     0.8840    -1.8350 h1         1 T1D       0.049700
     26 H3           4.5100     2.1300    -2.1380 ha         1 T1D       0.123000
     27 H5           7.4410    -0.0200    -4.4160 ha         1 T1D       0.110000
     28 H6           6.6350    -2.1390    -3.4560 ha         1 T1D       0.138000
     29 H8C1         5.3650    -3.4070    -3.3810 h1         1 T1D       0.003700
     30 H8C2         5.1610    -4.3700    -1.9110 h1         1 T1D       0.003700
     31 H8C3         6.5190    -3.2450    -2.0500 h1         1 T1D       0.003700
     32 H10          6.7940     1.6540    -5.8890 ha         1 T1D       0.110000
     33 H11          7.6030     3.7790    -6.8390 ha         1 T1D       0.103500
     34 H12          7.7830     5.7800    -5.4140 ha         1 T1D       0.102000
     35 H13          7.1520     5.6710    -3.0360 ha         1 T1D       0.103500
     36 H14          6.3380     3.5560    -2.0690 ha         1 T1D       0.110000
@<TRIPOS>BOND
     1     1     2 2   
     2     2     3 1   
     3     2     8 1   
     4     3     4 1   
     5     3    23 1   
     6     4     5 2   
     7     4     6 2   
     8     4     7 1   
     9     7     8 1   
    10     7     9 1   
    11     8    24 1   
    12     8    25 1   
    13     9    10 ar  
    14     9    14 ar  
    15    10    11 ar  
    16    10    26 1   
    17    11    12 ar  
    18    11    17 1   
    19    12    13 ar  
    20    12    27 1   
    21    13    14 ar  
    22    13    28 1   
    23    14    15 1   
    24    15    16 1   
    25    16    29 1   
    26    16    30 1   
    27    16    31 1   
    28    17    18 ar  
    29    17    22 ar  
    30    18    19 ar  
    31    18    32 1   
    32    19    20 ar  
    33    19    33 1   
    34    20    21 ar  
    35    20    34 1   
    36    21    22 ar  
    37    21    35 1   
    38    22    36 1   
@<TRIPOS>SUBSTRUCTURE
     1 T1D         1 TEMP              0 ****  ****    0 ROOT
