@<TRIPOS>MOLECULE
T1N
   30    29     1     0     0
SMALL
bcc


@<TRIPOS>ATOM
      1 CAA        -0.1440   -1.6220   -0.8200 c3        1 T1N     -0.366000
      2 CAB         6.2940    0.2240    9.7400 c3        1 T1N     -0.205000
      3 OAD         4.1120   -0.3060    6.8090 os        1 T1N     -0.168000
      4 CAE         0.8780   -1.1450    1.8950 c2        1 T1N     -0.403000
      5 CAF         5.6820    1.3850    6.2340 c2        1 T1N     -0.392000
      6 CAG         0.1840   -2.2470    1.7240 c1        1 T1N      0.112000
      7 CAH         4.6870    0.5320    5.9000 c1        1 T1N     -0.179000
      8 CAI         2.2720    0.7820    1.2650 c2        1 T1N     -0.066000
      9 CAJ         7.3190    2.1430    7.8480 c1        1 T1N      0.034000
     10 SAK         0.7160   -0.1080   -0.6380 ss        1 T1N      0.159000
     11 CAL         4.4680   -0.2610    8.1280 c2        1 T1N      0.263000
     12 CAM         1.3570   -0.1610    0.9560 c2        1 T1N     -0.225000
     13 CAN         6.2050    1.4770    7.5910 c2        1 T1N     -0.295000
     14 CAO         2.9230    0.9810    2.5400 c2        1 T1N     -0.226000
     15 CAP         3.4050    0.0290    3.3440 c2        1 T1N     -0.209000
     16 CAQ         5.4010    0.8000    8.6590 c3        1 T1N     -0.061000
     17 HAA        -1.0490   -1.6770   -0.1690 h1        1 T1N      0.111000
     18 HAAA       -0.4710   -1.6630   -1.8850 h1        1 T1N      0.111000
     19 HAAB        0.5020   -2.5070   -0.6110 h1        1 T1N      0.111000
     20 HAB         6.9010    1.0370   10.2060 hc        1 T1N      0.077667
     21 HABA        5.6720   -0.2710   10.5240 hc        1 T1N      0.077667
     22 HABB        6.9890   -0.5350    9.3070 hc        1 T1N      0.077667
     23 HAE         1.1630   -0.9310    2.9620 ha        1 T1N      0.228000
     24 HAF         6.1350    2.0260    5.4730 ha        1 T1N      0.120000
     25 HAG         3.3510   -1.0370    3.0820 ha        1 T1N      0.174000
     26 HAH         3.0390    2.0440    2.8200 ha        1 T1N      0.122000
     27 HAI         2.5560    1.5140    0.4830 ha        1 T1N      0.119000
     28 HAJ         3.9180    0.2570    4.3510 ha        1 T1N      0.174000
     29 HAQ         4.7280    1.5850    9.1200 hc        1 T1N      0.108000
     30 OAC         3.9150   -1.1170    8.8350 o         1 T1N     -0.385000
@<TRIPOS>BOND
     1    1   10 1   
     2    1   17 1   
     3    1   18 1   
     4    1   19 1   
     5    2   16 1   
     6    2   20 1   
     7    2   21 1   
     8    2   22 1   
     9    3    7 1   
    10    3   11 1   
    11    4    6 1   
    12    4   12 1   
    13    4   23 1   
    14    5    7 1   
    15    5   13 1   
    16    5   24 1   
    17    8   12 1   
    18    8   14 1   
    19    8   27 1   
    20    9   13 1   
    21   10   12 1   
    22   11   16 1   
    23   11   30 1   
    24   13   16 1   
    25   14   15 1   
    26   14   26 1   
    27   15   25 1   
    28   15   28 1   
    29   16   29 1   
@<TRIPOS>SUBSTRUCTURE
     1 T1N         1 TEMP              0 ****  ****    0 ROOT
