@<TRIPOS>MOLECULE
molecule
   30    31     1     0     0
SMALL
bcc


@<TRIPOS>ATOM
      1 CAA          0.0000     0.0000     0.0000 c3         1 T1N      -0.012000
      2 CAB          5.5690     1.2280     8.0050 c3         1 T1N      -0.060100
      3 OAD          5.8150    -2.0480     7.1270 o          1 T1N      -0.839800
      4 CAE          1.1800     0.0040     2.6660 ca         1 T1N      -0.162000
      5 CAF          5.4450    -0.0160     5.2580 ca         1 T1N      -0.056000
      6 CAG          1.4580     0.0000     3.9970 ca         1 T1N      -0.101000
      7 CAH          5.1770    -0.0090     3.9230 ca         1 T1N      -0.150000
      8 CAI          3.5310     0.0020     2.1120 ca         1 T1N      -0.092000
      9 CAJ          3.1100    -0.0080     5.8040 ca         1 T1N      -0.147000
     10 SAK          1.8140     0.0000     0.0000 ss         1 T1N      -0.298000
     11 CAL          5.5450    -1.2520     7.9960 c          1 T1N       0.894600
     12 CAM          2.2110     0.0020     1.7170 ca         1 T1N       0.018900
     13 CAN          4.4130    -0.0130     6.1950 ca         1 T1N       0.000700
     14 CAO          3.8430    -0.0070     3.4810 ca         1 T1N      -0.033000
     15 CAP          2.7950    -0.0050     4.4350 ca         1 T1N      -0.033000
     16 CAQ          4.7470    -0.0170     7.6650 c3         1 T1N      -0.147400
     17 HAA         -0.3610    -0.0020    -1.0210 h1         1 T1N       0.058033
     18 HAAA        -0.3610    -0.8840     0.5120 h1         1 T1N       0.058033
     19 HAAB        -0.3610     0.8850     0.5090 h1         1 T1N       0.058033
     20 HAB          5.1340     2.0920     7.5180 hc         1 T1N       0.023367
     21 HABA         5.5680     1.3800     9.0780 hc         1 T1N       0.023367
     22 HABB         6.5880     1.0930     7.6610 hc         1 T1N       0.023367
     23 HAE          0.1490     0.0040     2.3350 ha         1 T1N       0.114000
     24 HAF          6.4740    -0.0200     5.5960 ha         1 T1N       0.149000
     25 HAG          0.6500     0.0020     4.7190 ha         1 T1N       0.124000
     26 HAH          5.9890    -0.0110     3.2060 ha         1 T1N       0.120000
     27 HAI          4.3220    -0.0000     1.3720 ha         1 T1N       0.131000
     28 HAJ          2.3190    -0.0050     6.5440 ha         1 T1N       0.127000
     29 HAQ          3.8310    -0.0130     8.2430 hc         1 T1N       0.047700
     30 OAC          5.9820    -1.4520     9.2490 o          1 T1N      -0.839800
@<TRIPOS>BOND
     1    10     1 1
     2     1    17 1
     3     1    18 1
     4     1    19 1
     5     2    16 1
     6     2    20 1
     7     2    21 1
     8     2    22 1
     9    11    30 1
    10     3    11 1
    11     6     4 ar
    12     4    12 ar
    13     4    23 1
    14    13     5 ar
    15     5     7 ar
    16     5    24 1
    17    15     6 ar
    18     6    25 1
    19     7    14 ar
    20     7    26 1
    21    14     8 ar
    22     8    12 ar
    23     8    27 1
    24    13     9 ar
    25     9    15 ar
    26     9    28 1
    27    12    10 1
    28    16    11 1
    29    16    13 1
    30    15    14 ar
    31    16    29 1
@<TRIPOS>SUBSTRUCTURE
     1 T1N         1 TEMP              0 ****  ****    0 ROOT
