@<TRIPOS>MOLECULE
molecule
   41    42     1     0     0
SMALL
bcc


@<TRIPOS>ATOM
      1 O01          0.0000     0.0000     0.0000 o          1 T1O      -0.680500
      2 C02          1.2160     0.0000     0.0000 c          1 T1O       0.813500
      3 N03          1.9470     0.0000     1.1230 ns         1 T1O      -0.601900
      4 C04          3.3740    -0.0010     0.7660 c3         1 T1O       0.093700
      5 C05          3.3740    -0.0030    -0.7670 c3         1 T1O       0.092700
      6 C06          4.0450     1.2540    -1.3550 c3         1 T1O       0.012700
      7 S07          5.1720     1.7830    -0.0020 ss         1 T1O      -0.358200
      8 N08          1.9470    -0.0060    -1.1230 ns         1 T1O      -0.602900
      9 C09          4.0440     1.2560     1.3520 c3         1 T1O       0.027400
     10 C10          4.8380     0.9100     2.6140 c3         1 T1O      -0.064400
     11 C11          5.3850     2.1950     3.2400 c3         1 T1O      -0.087400
     12 C12          6.1790     1.8480     4.5020 c3         1 T1O      -0.066400
     13 C13          6.7270     3.1320     5.1280 c3         1 T1O      -0.155400
     14 C14          7.5080     2.7920     6.3720 c          1 T1O       0.658100
     15 N15          8.0870     3.7710     7.0930 ns         1 T1O      -0.584900
     16 C16          8.8460     3.4390     8.3020 c3         1 T1O       0.012000
     17 C17          9.3860     4.7040     8.9180 c          1 T1O       0.552100
     18 C18         10.2080     4.6370    10.1800 c3         1 T1O      -0.193100
     19 O19          9.1610     5.7730     8.4010 o          1 T1O      -0.530100
     20 O20          7.6150     1.6350     6.7220 o          1 T1O      -0.615100
     21 H1           1.5810    -0.0000     2.0540 hn         1 T1O       0.362500
     22 H2           3.8550    -0.8950     1.1440 h1         1 T1O       0.076700
     23 H3           3.8560    -0.8980    -1.1420 h1         1 T1O       0.074700
     24 H4           3.3080     2.0210    -1.5600 h1         1 T1O       0.083700
     25 H5           4.6080     1.0050    -2.2460 h1         1 T1O       0.083700
     26 H6           1.5810    -0.0130    -2.0550 hn         1 T1O       0.362500
     27 H7           3.3060     2.0230     1.5530 h1         1 T1O       0.090700
     28 H8           4.1880     0.4110     3.3240 hc         1 T1O       0.056700
     29 H9           5.6610     0.2550     2.3550 hc         1 T1O       0.056700
     30 H10          6.0350     2.6940     2.5310 hc         1 T1O       0.048700
     31 H11          4.5620     2.8490     3.4990 hc         1 T1O       0.048700
     32 H12          7.0010     1.1930     4.2430 hc         1 T1O       0.059200
     33 H13          5.5290     1.3500     5.2120 hc         1 T1O       0.059200
     34 H14          7.3760     3.6310     4.4190 hc         1 T1O       0.062700
     35 H15          5.9040     3.7870     5.3870 hc         1 T1O       0.062700
     36 H16          7.9990     4.7250     6.8040 hn         1 T1O       0.335500
     37 H17          8.1960     2.9410     9.0110 h1         1 T1O       0.076700
     38 H18          9.6680     2.7830     8.0430 h1         1 T1O       0.076700
     39 H19         10.5040     5.6370    10.4710 hc         1 T1O       0.066033
     40 H20         11.0920     4.0360    10.0030 hc         1 T1O       0.066033
     41 H21          9.6190     4.1890    10.9710 hc         1 T1O       0.066033
@<TRIPOS>BOND
     1    16    15 1
     2    16    17 1
     3     5     4 1
     4     5     8 1
     5     5     6 1
     6     4     3 1
     7     4     9 1
     8    15    14 1
     9     8     2 1
    10    11    10 1
    11    11    12 1
    12     6     7 1
    13    10     9 1
    14     3     2 1
    15    18    17 1
    16    14    20 2
    17    14    13 1
    18     7     9 1
    19    17    19 2
    20     2     1 2
    21    13    12 1
    22     3    21 1
    23     4    22 1
    24     5    23 1
    25     6    24 1
    26     6    25 1
    27     8    26 1
    28     9    27 1
    29    10    28 1
    30    10    29 1
    31    11    30 1
    32    11    31 1
    33    12    32 1
    34    12    33 1
    35    13    34 1
    36    13    35 1
    37    15    36 1
    38    16    37 1
    39    16    38 1
    40    18    39 1
    41    18    40 1
    42    18    41 1
@<TRIPOS>SUBSTRUCTURE
     1 T1O         1 TEMP              0 ****  ****    0 ROOT
