@<TRIPOS>MOLECULE
T1P
   48    49     1     0     0
SMALL
bcc


@<TRIPOS>ATOM
      1 O33         5.1060    4.0490   -5.6310 o         1 T1P     -0.938500
      2 P           4.5260    4.1220   -4.2340 p5        1 T1P      1.368900
      3 O31         5.4610    4.1630   -3.0750 o         1 T1P     -0.938500
      4 O32         3.3600    5.0940   -4.2580 o         1 T1P     -0.938500
      5 O27         3.7550    2.6040   -4.0660 os        1 T1P     -0.568200
      6 C17         2.8630    2.2700   -5.0580 c3        1 T1P      0.233400
      7 C16         1.4440    2.1200   -4.4960 c3        1 T1P     -0.140400
      8 C15         0.3380    2.2760   -5.5340 c3        1 T1P      0.053000
      9 N5          0.0950    3.6130   -6.0670 n         1 T1P     -0.244000
     10 C6          1.0670    4.0440   -7.0810 c         1 T1P      0.756500
     11 O6          1.2400    3.4510   -8.1590 o         1 T1P     -0.630500
     12 C9          0.1250    4.6770   -5.1030 cc        1 T1P     -0.317600
     13 C4         -0.6490    4.8010   -3.8920 c         1 T1P      0.772700
     14 O4         -1.5060    4.0060   -3.4510 o         1 T1P     -0.685500
     15 N3         -0.4120    5.9930   -3.1700 n         1 T1P     -0.596500
     16 C2          0.6210    6.9000   -3.4790 c         1 T1P      0.807500
     17 O2          0.7990    7.8810   -2.7210 o         1 T1P     -0.679500
     18 C8          1.0900    5.6460   -5.4620 cd        1 T1P      0.256200
     19 N1          1.3560    6.7900   -4.6980 n         1 T1P     -0.372100
     20 N7          1.6060    5.3540   -6.7500 n         1 T1P     -0.306000
     21 C10         2.9500    5.7880   -7.0840 c3        1 T1P      0.033000
     22 C11         3.5610    5.1810   -8.3490 c3        1 T1P      0.126100
     23 O19         2.9800    5.8120   -9.4870 oh        1 T1P     -0.623800
     24 C12         5.0840    5.4250   -8.3460 c3        1 T1P      0.097100
     25 O21         5.4130    6.7050   -8.8480 oh        1 T1P     -0.610800
     26 C13         5.8170    4.3460   -9.1590 c3        1 T1P      0.086100
     27 O23         5.2680    4.3420  -10.4770 oh        1 T1P     -0.641800
     28 C14         5.6990    2.9740   -8.4860 c3        1 T1P      0.048400
     29 O26         6.9000    2.2430   -8.6840 oh        1 T1P     -0.642800
     30 H171        3.1590    1.2780   -5.5140 h1        1 T1P     -0.015300
     31 H172        2.8840    3.0410   -5.8820 h1        1 T1P     -0.015300
     32 H161        1.3410    1.1020   -4.0390 hc        1 T1P      0.046700
     33 H162        1.3020    2.8690   -3.6730 hc        1 T1P      0.046700
     34 H151       -0.6400    1.9700   -5.0610 h1        1 T1P      0.048200
     35 H152        0.5460    1.6060   -6.4150 h1        1 T1P      0.048200
     36 H3         -0.8410    6.0960   -2.2790 hn        1 T1P      0.323500
     37 H1          2.3640    6.9220   -4.5590 hn        1 T1P      0.398500
     38 H101        3.6480    5.5040   -6.2070 h1        1 T1P      0.120700
     39 H102        2.9030    6.9060   -7.2040 h1        1 T1P      0.120700
     40 H11         3.3770    4.0700   -8.3810 h1        1 T1P      0.077700
     41 H19         3.1990    5.2480  -10.2390 ho        1 T1P      0.401000
     42 H12         5.4790    5.3860   -7.2800 h1        1 T1P      0.182700
     43 H21         4.9120    6.8240   -9.6660 ho        1 T1P      0.394000
     44 H13         6.9040    4.6340   -9.2410 h1        1 T1P      0.036700
     45 H23         5.5510    3.5170  -10.8880 ho        1 T1P      0.393000
     46 H141        5.4630    3.1000   -7.3810 h1        1 T1P      0.112700
     47 H142        4.8960    2.3650   -8.9810 h1        1 T1P      0.112700
     48 H26         7.4450    2.4060   -7.9050 ho        1 T1P      0.407000
@<TRIPOS>BOND
     1    1    2 1   
     2    2    3 1   
     3    2    4 1   
     4    2    5 1   
     5    5    6 1   
     6    6    7 1   
     7    6   30 1   
     8    6   31 1   
     9    7    8 1   
    10    7   32 1   
    11    7   33 1   
    12    8    9 1   
    13    8   34 1   
    14    8   35 1   
    15    9   10 1   
    16    9   12 1   
    17   10   11 2   
    18   10   20 1   
    19   12   13 1   
    20   12   18 2   
    21   13   14 2   
    22   13   15 1   
    23   15   16 1   
    24   15   36 1   
    25   16   17 2   
    26   16   19 1   
    27   18   19 1   
    28   18   20 1   
    29   19   37 1   
    30   20   21 1   
    31   21   22 1   
    32   21   38 1   
    33   21   39 1   
    34   22   23 1   
    35   22   24 1   
    36   22   40 1   
    37   23   41 1   
    38   24   25 1   
    39   24   26 1   
    40   24   42 1   
    41   25   43 1   
    42   26   27 1   
    43   26   28 1   
    44   26   44 1   
    45   27   45 1   
    46   28   29 1   
    47   28   46 1   
    48   28   47 1   
    49   29   48 1   
@<TRIPOS>SUBSTRUCTURE
     1 T1P         1 TEMP              0 ****  ****    0 ROOT
