@<TRIPOS>MOLECULE
T1Q
   55    57     1     0     0
SMALL
bcc


@<TRIPOS>ATOM
      1 N1           0.0000     0.0000     0.0000 nb         1 T1Q      -0.724000
      2 C2           1.3280     0.0000     0.0000 ca         1 T1Q       0.761900
      3 N3           2.0370     0.0000     1.1170 nb         1 T1Q      -0.748000
      4 C4           1.4330    -0.0010     2.3000 ca         1 T1Q       0.461200
      5 C5           0.0220    -0.0010     2.3410 ca         1 T1Q      -0.442400
      6 C6          -0.6830    -0.0010     1.1290 ca         1 T1Q       0.557200
      7 N7           2.1620    -0.0010     3.4640 n          1 T1Q       0.009700
      8 C8           1.5440    -0.0030     4.6610 c          1 T1Q       0.628700
      9 C9           0.0810    -0.0030     4.7380 cc         1 T1Q      -0.173400
     10 C10         -0.6530    -0.0000     3.5830 cd         1 T1Q       0.050800
     11 C11          3.6250     0.0000     3.4030 c3         1 T1Q       0.043300
     12 O12          2.2050    -0.0040     5.6840 o          1 T1Q      -0.675500
     13 C13         -0.5980    -0.0040     6.0550 ca         1 T1Q      -0.047800
     14 C14         -0.9240     1.2010     6.6760 ca         1 T1Q       0.104900
     15 C15         -1.5600     1.1910     7.9110 ca         1 T1Q       0.026600
     16 C16         -1.8700    -0.0170     8.5220 ca         1 T1Q      -0.136000
     17 C17         -1.5470    -1.2120     7.9070 ca         1 T1Q      -0.112000
     18 C18         -0.9190    -1.2140     6.6770 ca         1 T1Q       0.121900
     19 F19         -0.6100    -2.3840     6.0770 f          1 T1Q      -0.122900
     20 F20         -0.6210     2.3740     6.0800 f          1 T1Q      -0.120900
     21 N21         -1.8900     2.3980     8.5380 nu         1 T1Q      -0.397500
     22 N22          1.9930     0.0000    -1.2100 nu         1 T1Q      -0.462900
     23 S23         -1.8020     2.5250    10.1870 s6         1 T1Q       0.952900
     24 C24         -0.0660     2.1760    10.5780 c3         1 T1Q      -0.009600
     25 O25         -2.1090     3.8870    10.4500 o          1 T1Q      -0.582300
     26 O26         -2.6400     1.4800    10.6630 o          1 T1Q      -0.582300
     27 C27          0.1440     2.2630    12.0900 c3         1 T1Q       0.004600
     28 C28          1.6090     1.9680    12.4190 c3         1 T1Q       0.008900
     29 C29          1.2340    -0.0000    -2.4630 c3         1 T1Q       0.163800
     30 C30          2.2040    -0.0000    -3.6460 c3         1 T1Q      -0.052400
     31 C31          1.4110    -0.0000    -4.9550 c3         1 T1Q       0.233400
     32 O32          2.3160    -0.0010    -6.0610 oh         1 T1Q      -0.593800
     33 H6          -1.7670    -0.0010     1.1190 h4         1 T1Q      -0.014900
     34 H10         -1.7360    -0.0010     3.6200 ha         1 T1Q       0.113000
     35 H11          4.0280    -0.0450     4.4080 h1         1 T1Q       0.031367
     36 H11A         3.9650     0.9070     2.9180 h1         1 T1Q       0.031367
     37 H11B         3.9630    -0.8610     2.8390 h1         1 T1Q       0.031367
     38 H16         -2.3650    -0.0220     9.4860 ha         1 T1Q       0.181000
     39 H17         -1.7940    -2.1510     8.3880 ha         1 T1Q       0.124000
     40 HN21        -2.2150     3.1720     7.9930 hn         1 T1Q       0.356800
     41 HN22         2.9930     0.0010    -1.2320 hn         1 T1Q       0.304800
     42 H24          0.5680     2.9010    10.0830 h1         1 T1Q       0.074700
     43 H24A         0.1880     1.1800    10.2350 h1         1 T1Q       0.074700
     44 H27         -0.4910     1.5380    12.5860 hc         1 T1Q       0.025700
     45 H27A        -0.1100     3.2590    12.4330 hc         1 T1Q       0.025700
     46 H28          1.8620     0.9730    12.0760 hc         1 T1Q       0.004700
     47 H28A         1.7580     2.0300    13.4900 hc         1 T1Q       0.004700
     48 H28B         2.2430     2.6930    11.9240 hc         1 T1Q       0.004700
     49 H29          0.6110    -0.8850    -2.5080 h1         1 T1Q       0.027700
     50 H29A         0.6100     0.8840    -2.5080 h1         1 T1Q       0.027700
     51 H30          2.8280     0.8840    -3.6020 hc         1 T1Q       0.028200
     52 H30A         2.8280    -0.8850    -3.6020 hc         1 T1Q       0.028200
     53 H31          0.7870    -0.8850    -4.9990 h1         1 T1Q      -0.013300
     54 H31A         0.7880     0.8840    -5.0000 h1         1 T1Q      -0.013300
     55 HO32         1.8270     0.0040    -6.8670 ho         1 T1Q       0.394000
@<TRIPOS>BOND
     1     1     2 ar  
     2     1     6 ar  
     3     2     3 ar  
     4     2    22 1   
     5     3     4 ar  
     6     4     5 ar  
     7     4     7 1   
     8     5     6 ar  
     9     5    10 1   
    10     6    33 1   
    11     7     8 1   
    12     7    11 1   
    13     8     9 1   
    14     8    12 2   
    15     9    10 2   
    16     9    13 1   
    17    10    34 1   
    18    11    35 1   
    19    11    36 1   
    20    11    37 1   
    21    13    14 ar  
    22    13    18 ar  
    23    14    15 ar  
    24    14    20 1   
    25    15    16 ar  
    26    15    21 1   
    27    16    17 ar  
    28    16    38 1   
    29    17    18 ar  
    30    17    39 1   
    31    18    19 1   
    32    21    23 1   
    33    21    40 1   
    34    22    29 1   
    35    22    41 1   
    36    23    24 1   
    37    23    25 2   
    38    23    26 2   
    39    24    27 1   
    40    24    42 1   
    41    24    43 1   
    42    27    28 1   
    43    27    44 1   
    44    27    45 1   
    45    28    46 1   
    46    28    47 1   
    47    28    48 1   
    48    29    30 1   
    49    29    49 1   
    50    29    50 1   
    51    30    31 1   
    52    30    51 1   
    53    30    52 1   
    54    31    32 1   
    55    31    53 1   
    56    31    54 1   
    57    32    55 1   
@<TRIPOS>SUBSTRUCTURE
     1 T1Q         1 TEMP              0 ****  ****    0 ROOT
