@<TRIPOS>MOLECULE
molecule
   55    57     1     0     0
SMALL
bcc


@<TRIPOS>ATOM
      1 N1           0.0000     0.0000     0.0000 nb         1 T1Q      -0.819000
      2 C2           1.3280     0.0000     0.0000 ca         1 T1Q       0.987900
      3 N3           2.0370     0.0000     1.1170 nb         1 T1Q      -0.851000
      4 C4           1.4330    -0.0010     2.3000 ca         1 T1Q       0.648200
      5 C5           0.0220    -0.0010     2.3410 ca         1 T1Q      -0.436400
      6 C6          -0.6830    -0.0010     1.1290 ca         1 T1Q       0.556200
      7 N7           2.1620    -0.0010     3.4640 n          1 T1Q      -0.408300
      8 C8           1.5440    -0.0030     4.6610 c          1 T1Q       0.716700
      9 C9           0.0810    -0.0030     4.7380 cc         1 T1Q      -0.167400
     10 C10         -0.6530    -0.0000     3.5830 cd         1 T1Q       0.015800
     11 C11          3.6250     0.0000     3.4030 c3         1 T1Q       0.087300
     12 O12          2.2050    -0.0040     5.6840 o          1 T1Q      -0.624500
     13 C13         -0.5980    -0.0040     6.0550 ca         1 T1Q      -0.084800
     14 C14         -0.9240     1.2010     6.6760 ca         1 T1Q       0.149900
     15 C15         -1.5600     1.1910     7.9110 ca         1 T1Q       0.090600
     16 C16         -1.8700    -0.0170     8.5220 ca         1 T1Q      -0.134000
     17 C17         -1.5470    -1.2120     7.9070 ca         1 T1Q      -0.158000
     18 C18         -0.9190    -1.2140     6.6770 ca         1 T1Q       0.161900
     19 F19         -0.6100    -2.3840     6.0770 f          1 T1Q      -0.126900
     20 F20         -0.6210     2.3740     6.0800 f          1 T1Q      -0.125900
     21 N21         -1.8900     2.3980     8.5380 nu         1 T1Q      -0.760500
     22 N22          1.9930     0.0000    -1.2100 nu         1 T1Q      -0.884900
     23 S23         -1.8020     2.5250    10.1870 s6         1 T1Q       1.325900
     24 C24         -0.0660     2.1760    10.5780 c3         1 T1Q      -0.218600
     25 O25         -2.1090     3.8870    10.4500 o          1 T1Q      -0.627300
     26 O26         -2.6400     1.4800    10.6630 o          1 T1Q      -0.627300
     27 C27          0.1440     2.2630    12.0900 c3         1 T1Q      -0.063400
     28 C28          1.6090     1.9680    12.4190 c3         1 T1Q      -0.082100
     29 C29          1.2340    -0.0000    -2.4630 c3         1 T1Q       0.243800
     30 C30          2.2040    -0.0000    -3.6460 c3         1 T1Q      -0.103400
     31 C31          1.4110    -0.0000    -4.9550 c3         1 T1Q       0.146400
     32 O32          2.3160    -0.0010    -6.0610 oh         1 T1Q      -0.609800
     33 H6          -1.7670    -0.0010     1.1190 h4         1 T1Q       0.037100
     34 H10         -1.7360    -0.0010     3.6200 ha         1 T1Q       0.144000
     35 H11          4.0280    -0.0450     4.4080 h1         1 T1Q       0.062367
     36 H11A         3.9650     0.9070     2.9180 h1         1 T1Q       0.062367
     37 H11B         3.9630    -0.8610     2.8390 h1         1 T1Q       0.062367
     38 H16         -2.3650    -0.0220     9.4860 ha         1 T1Q       0.197000
     39 H17         -1.7940    -2.1510     8.3880 ha         1 T1Q       0.157000
     40 HN21        -2.2150     3.1720     7.9930 hn         1 T1Q       0.472800
     41 HN22         2.9930     0.0010    -1.2320 hn         1 T1Q       0.462800
     42 H24          0.5680     2.9010    10.0830 h1         1 T1Q       0.105700
     43 H24A         0.1880     1.1800    10.2350 h1         1 T1Q       0.105700
     44 H27         -0.4910     1.5380    12.5860 hc         1 T1Q       0.054200
     45 H27A        -0.1100     3.2590    12.4330 hc         1 T1Q       0.054200
     46 H28          1.8620     0.9730    12.0760 hc         1 T1Q       0.039700
     47 H28A         1.7580     2.0300    13.4900 hc         1 T1Q       0.039700
     48 H28B         2.2430     2.6930    11.9240 hc         1 T1Q       0.039700
     49 H29          0.6110    -0.8850    -2.5080 h1         1 T1Q       0.054700
     50 H29A         0.6100     0.8840    -2.5080 h1         1 T1Q       0.054700
     51 H30          2.8280     0.8840    -3.6020 hc         1 T1Q       0.061200
     52 H30A         2.8280    -0.8850    -3.6020 hc         1 T1Q       0.061200
     53 H31          0.7870    -0.8850    -4.9990 h1         1 T1Q       0.023700
     54 H31A         0.7880     0.8840    -5.0000 h1         1 T1Q       0.023700
     55 HO32         1.8270     0.0040    -6.8670 ho         1 T1Q       0.407000
@<TRIPOS>BOND
     1     6     1 ar
     2     2     1 ar
     3     3     2 ar
     4     2    22 1
     5     4     3 ar
     6     7     4 1
     7     4     5 ar
     8    10     5 1
     9     5     6 ar
    10     6    33 1
    11     8     7 1
    12    11     7 1
    13    12     8 2
    14     8     9 1
    15    13     9 1
    16     9    10 2
    17    10    34 1
    18    11    35 1
    19    11    36 1
    20    11    37 1
    21    14    13 ar
    22    13    18 ar
    23    20    14 1
    24    15    14 ar
    25    21    15 1
    26    15    16 ar
    27    16    17 ar
    28    16    38 1
    29    17    18 ar
    30    17    39 1
    31    18    19 1
    32    23    21 1
    33    21    40 1
    34    22    29 1
    35    22    41 1
    36    26    23 2
    37    23    24 1
    38    23    25 2
    39    27    24 1
    40    24    42 1
    41    24    43 1
    42    27    28 1
    43    27    44 1
    44    27    45 1
    45    28    46 1
    46    28    47 1
    47    28    48 1
    48    30    29 1
    49    29    49 1
    50    29    50 1
    51    31    30 1
    52    30    51 1
    53    30    52 1
    54    32    31 1
    55    31    53 1
    56    31    54 1
    57    32    55 1
@<TRIPOS>SUBSTRUCTURE
     1 T1Q         1 TEMP              0 ****  ****    0 ROOT
