@<TRIPOS>MOLECULE
T21
   28    30     1     0     0
SMALL
bcc


@<TRIPOS>ATOM
      1 C1          0.1460    0.0730   -0.0550 cc        1 T21      0.031600
      2 C6          2.1660   -0.0090    3.6060 cc        1 T21     -0.159300
      3 C5          1.5210    0.0640    0.0180 cd        1 T21     -0.336800
      4 C3          1.2650    0.0180    2.4860 cc        1 T21     -0.314900
      5 C14         8.4220   -0.0410    2.6160 c3        1 T21      0.688200
      6 C11         7.2960   -0.0600    4.8760 ca        1 T21     -0.078000
      7 C10         6.1480   -0.0700    5.6670 ca        1 T21     -0.132000
      8 C9          4.8860   -0.0540    5.0770 ca        1 T21     -0.088000
      9 C8          4.7590   -0.0250    3.6780 ca        1 T21     -0.121500
     10 F3          8.2830    0.5910    1.4040 f         1 T21     -0.236300
     11 F1          8.8700   -1.2980    2.2880 f         1 T21     -0.236300
     12 F2          9.5160    0.5640    3.1860 f         1 T21     -0.236300
     13 C12         7.1700   -0.0330    3.4850 ca        1 T21     -0.166300
     14 C13         5.9140   -0.0150    2.8810 ca        1 T21     -0.063000
     15 C7          3.4490   -0.0060    3.0810 cd        1 T21      0.279200
     16 C2         -0.1780    0.0280    2.3800 c         1 T21      0.732100
     17 O2         -1.0010    0.0150    3.3130 o         1 T21     -0.625500
     18 N          -0.6720    0.0560    1.0500 n         1 T21     -0.450100
     19 O1          3.4050    0.0210    1.6590 os        1 T21     -0.342800
     20 C4          2.0650    0.0350    1.3270 cd        1 T21      0.402500
     21 H1         -0.3700    0.0940   -1.0340 h4        1 T21      0.158000
     22 H2          1.8730   -0.0270    4.6540 ha        1 T21      0.178000
     23 H3          2.1580    0.0770   -0.8720 ha        1 T21      0.171000
     24 H5          8.2950   -0.0690    5.3380 ha        1 T21      0.154000
     25 H6          6.2390   -0.0910    6.7630 ha        1 T21      0.146000
     26 H7          3.9830   -0.0620    5.7070 ha        1 T21      0.144000
     27 H8          5.8250    0.0130    1.7820 ha        1 T21      0.166000
     28 H4         -1.6610    0.0640    0.9270 hn        1 T21      0.336500
@<TRIPOS>BOND
     1    1    3 2
     2    1   18 1
     3    1   21 1
     4    2    4 1
     5    2   15 2
     6    2   22 1
     7    3   20 1
     8    3   23 1
     9    4   16 1
    10    4   20 2
    11    5   10 1
    12    5   11 1
    13    5   12 1
    14    5   13 1
    15    6    7 ar
    16    6   13 ar
    17    6   24 1
    18    7    8 ar
    19    7   25 1
    20    8    9 ar
    21    8   26 1
    22    9   14 ar
    23    9   15 1
    24   13   14 ar
    25   14   27 1
    26   15   19 1
    27   16   17 2
    28   16   18 1
    29   18   28 1
    30   19   20 1
@<TRIPOS>SUBSTRUCTURE
     1 T21         1 TEMP              0 ****  ****    0 ROOT
