@<TRIPOS>MOLECULE
molecule
   47    49     1     0     0
SMALL
bcc


@<TRIPOS>ATOM
      1 O26          0.0000     0.0000     0.0000 o          1 T22      -0.628500
      2 C25          1.2160     0.0000     0.0000 c          1 T22       0.801500
      3 N2           1.8770     0.0000     1.1710 n          1 T22      -0.467400
      4 C1           1.1280     0.0010     2.4300 c3         1 T22       0.071300
      5 N15          1.8780    -0.0070    -1.1710 n          1 T22      -0.388000
      6 C16          1.1310    -0.0130    -2.4310 c3         1 T22       0.149300
      7 C17          1.0560    -1.4210    -2.9640 ca         1 T22      -0.086300
      8 C22          0.0770    -2.2970    -2.4900 ca         1 T22       0.028000
      9 C23         -0.8600    -1.8610    -1.4980 cg         1 T22       0.193800
     10 N24         -1.6130    -1.5320    -0.7150 n1         1 T22      -0.278800
     11 C21          0.0140    -3.5990    -2.9890 ca         1 T22      -0.069000
     12 C20          0.9190    -4.0130    -3.9450 ca         1 T22      -0.096000
     13 C19          1.8870    -3.1400    -4.4090 ca         1 T22      -0.140000
     14 C18          1.9510    -1.8460    -3.9230 ca         1 T22      -0.200000
     15 C6           3.2520    -0.0070    -1.1920 cd         1 T22       0.313600
     16 C5           3.9420    -0.0010    -0.0110 cc         1 T22      -0.347200
     17 C3           3.2260    -0.0010     1.1960 c          1 T22       0.681700
     18 O4           3.8180    -0.0010     2.2610 o          1 T22      -0.596500
     19 N7           3.9260    -0.0130    -2.3860 nh         1 T22      -0.742400
     20 C14          3.9000     1.1620    -3.2670 c3         1 T22       0.276800
     21 C11          5.3410     1.5650    -3.5940 c3         1 T22      -0.045500
     22 N13          5.3330     2.6580    -4.5760 nz         1 T22      -0.822600
     23 C10          6.0840     0.3610    -4.1760 c3         1 T22      -0.063400
     24 C9           6.1210    -0.7660    -3.1420 c3         1 T22      -0.066400
     25 C8           4.6930    -1.1940    -2.8060 c3         1 T22       0.250800
     26 H1           0.8100    -1.0310     2.5190 h1         1 T22       0.076700
     27 H1A          1.3590     0.7090     3.2160 h1         1 T22       0.076700
     28 H1B          0.1370     0.2980     2.1100 h1         1 T22       0.076700
     29 H16          0.1520     0.3200    -2.1060 h1         1 T22       0.096700
     30 H16A         1.8590     0.4160    -3.1080 h1         1 T22       0.096700
     31 H21         -0.7970    -4.2620    -2.7120 ha         1 T22       0.162000
     32 H20          0.7370    -4.7940    -4.6740 ha         1 T22       0.152000
     33 H19          2.5880    -3.0500    -5.2300 ha         1 T22       0.136000
     34 H18          2.3170    -1.4440    -4.8610 ha         1 T22       0.139000
     35 H5           4.8620    -0.4390     0.3570 ha         1 T22       0.202000
     36 H14          3.6130     1.0360    -4.3040 h1         1 T22       0.044700
     37 H14A         3.4860     2.0830    -2.8740 h1         1 T22       0.044700
     38 H11          5.8370     1.8900    -2.6880 hx         1 T22       0.125700
     39 HN13         6.2430     2.7380    -4.9870 hn         1 T22       0.472467
     40 HN1A         4.6380     2.3670    -5.2350 hn         1 T22       0.472467
     41 H10          5.8270     0.5570    -5.2100 hc         1 T22       0.031700
     42 H10A         7.0080     0.9260    -4.1360 hc         1 T22       0.031700
     43 H9           6.3610    -1.7160    -3.6060 hc         1 T22       0.096200
     44 H9A          6.6170    -0.1450    -2.4060 hc         1 T22       0.096200
     45 H8           4.5640    -1.9520    -2.0430 h1         1 T22       0.082200
     46 H8A          4.5040    -1.4520    -3.8420 h1         1 T22       0.082200
     47 H133         4.9680     3.3290    -3.9300 hn         1 T22       0.472467
@<TRIPOS>BOND
     1     1     2 2
     2     3     2 1
     3     2     5 1
     4     4     3 1
     5     3    17 1
     6     4    26 1
     7     4    27 1
     8     4    28 1
     9     5     6 1
    10     5    15 1
    11     6     7 1
    12     6    29 1
    13     6    30 1
    14    14     7 ar
    15     7     8 ar
    16     8    11 ar
    17     8     9 1
    18     9    10 3
    19    12    11 ar
    20    11    31 1
    21    13    12 ar
    22    12    32 1
    23    14    13 ar
    24    13    33 1
    25    14    34 1
    26    16    15 2
    27    15    19 1
    28    17    16 1
    29    16    35 1
    30    18    17 2
    31    25    19 1
    32    19    20 1
    33    20    21 1
    34    20    36 1
    35    20    37 1
    36    23    21 1
    37    21    22 1
    38    21    38 1
    39    22    39 1
    40    22    40 1
    41    24    23 1
    42    23    41 1
    43    23    42 1
    44    25    24 1
    45    24    43 1
    46    24    44 1
    47    25    45 1
    48    25    46 1
    49    47    22 1
@<TRIPOS>SUBSTRUCTURE
     1 T22         1 TEMP              0 ****  ****    0 ROOT
