@<TRIPOS>MOLECULE
T24
   50    49     1     0     0
SMALL
bcc


@<TRIPOS>ATOM
      1 CAR        -0.7230   -1.9090    0.1040 c3        1 T24     -0.087100
      2 CAQ         0.7520   -2.1400   -0.1050 c3        1 T24     -0.063200
      3 CAP         1.4230   -2.6450    1.1170 c2        1 T24     -0.161200
      4 CAO         2.7440   -2.5960    1.3220 c2        1 T24     -0.178200
      5 CAN         3.7240   -2.0380    0.3600 c3        1 T24     -0.079200
      6 CAM         3.8040   -0.5040    0.4500 c3        1 T24      0.180300
      7 OAS         3.3810    0.0820   -0.7740 oh        1 T24     -0.604800
      8 CAL         5.1590   -0.0360    0.8730 c2        1 T24     -0.207200
      9 CAK         6.3090   -0.1900    0.2040 ce        1 T24     -0.109000
     10 CAJ         6.4750   -0.8790   -1.0580 ce        1 T24     -0.189000
     11 CAI         7.5840   -0.8310   -1.8100 c2        1 T24     -0.115200
     12 CAH         8.8030   -0.0570   -1.4810 c3        1 T24     -0.062200
     13 CAG         9.8930   -0.2340   -2.5180 c3        1 T24     -0.079400
     14 CAF        11.1310    0.5580   -2.1520 c3        1 T24     -0.079400
     15 CAE        12.2260    0.3750   -3.1810 c3        1 T24     -0.079400
     16 CAD        13.4670    1.1610   -2.8150 c3        1 T24     -0.078400
     17 CAC        14.5690    0.9620   -3.8360 c3        1 T24     -0.065400
     18 CAB        15.8070    1.7500   -3.4890 c3        1 T24     -0.194400
     19 CAA        16.9800    1.3850   -4.4170 c         1 T24      0.907600
     20 OAU        17.6710    2.3330   -4.8900 o         1 T24     -0.852800
     21 OAT        17.2100    0.1630   -4.6470 o         1 T24     -0.852800
     22 HAR1       -0.8930   -1.1590    0.9130 hc        1 T24      0.030700
     23 HAR2       -1.1890   -1.5260   -0.8360 hc        1 T24      0.030700
     24 HAR3       -1.2370   -2.8580    0.3920 hc        1 T24      0.030700
     25 HAQ1        0.9020   -2.8850   -0.9350 hc        1 T24      0.059700
     26 HAQ2        1.2440   -1.1820   -0.4370 hc        1 T24      0.059700
     27 HAP         0.7600   -3.0860    1.8790 ha        1 T24      0.116000
     28 HAO         3.1750   -2.9900    2.2570 ha        1 T24      0.118000
     29 HAN1        4.7360   -2.4820    0.5530 hc        1 T24      0.055700
     30 HAN2        3.4290   -2.3170   -0.6890 hc        1 T24      0.055700
     31 HAM         3.0310   -0.1310    1.1870 h1        1 T24      0.075700
     32 HOAS        4.1090    0.0090   -1.4040 ho        1 T24      0.405000
     33 HAL         5.1650    0.4960    1.8390 ha        1 T24      0.125000
     34 HAK         7.2380    0.2340    0.6340 ha        1 T24      0.128000
     35 HAJ         5.6190   -1.4940   -1.3900 ha        1 T24      0.118000
     36 HAI         7.6230   -1.4000   -2.7560 ha        1 T24      0.125000
     37 HAH1        8.5430    1.0340   -1.3950 hc        1 T24      0.053700
     38 HAH2        9.1910   -0.3780   -0.4750 hc        1 T24      0.053700
     39 HAG1        9.5180    0.0990   -3.5210 hc        1 T24      0.041200
     40 HAG2       10.1560   -1.3210   -2.6070 hc        1 T24      0.041200
     41 HAF1       11.5030    0.2300   -1.1460 hc        1 T24      0.035200
     42 HAF2       10.8700    1.6460   -2.0690 hc        1 T24      0.035200
     43 HAE1       11.8560    0.7060   -4.1870 hc        1 T24      0.037700
     44 HAE2       12.4850   -0.7130   -3.2660 hc        1 T24      0.037700
     45 HAD1       13.2140    2.2510   -2.7410 hc        1 T24      0.026700
     46 HAD2       13.8300    0.8380   -1.8040 hc        1 T24      0.026700
     47 HAC1       14.2000    1.2710   -4.8480 hc        1 T24      0.044200
     48 HAC2       14.8420   -0.1260   -3.9020 hc        1 T24      0.044200
     49 HAB1       15.6050    2.8470   -3.5610 hc        1 T24      0.018700
     50 HAB2       16.1220    1.5260   -2.4380 hc        1 T24      0.018700
@<TRIPOS>BOND
     1    1    2 1   
     2    1   22 1   
     3    1   23 1   
     4    1   24 1   
     5    2    3 1   
     6    2   25 1   
     7    2   26 1   
     8    3    4 2   
     9    3   27 1   
    10    4    5 1   
    11    4   28 1   
    12    5    6 1   
    13    5   29 1   
    14    5   30 1   
    15    6    7 1   
    16    6    8 1   
    17    6   31 1   
    18    7   32 1   
    19    8    9 2   
    20    8   33 1   
    21    9   10 1   
    22    9   34 1   
    23   10   11 2   
    24   10   35 1   
    25   11   12 1   
    26   11   36 1   
    27   12   13 1   
    28   12   37 1   
    29   12   38 1   
    30   13   14 1   
    31   13   39 1   
    32   13   40 1   
    33   14   15 1   
    34   14   41 1   
    35   14   42 1   
    36   15   16 1   
    37   15   43 1   
    38   15   44 1   
    39   16   17 1   
    40   16   45 1   
    41   16   46 1   
    42   17   18 1   
    43   17   47 1   
    44   17   48 1   
    45   18   19 1   
    46   18   49 1   
    47   18   50 1   
    48   19   20 1   
    49   19   21 1   
@<TRIPOS>SUBSTRUCTURE
     1 T24         1 TEMP              0 ****  ****    0 ROOT
