@<TRIPOS>MOLECULE
T25
   52    52     1     0     0
SMALL
bcc


@<TRIPOS>ATOM
      1 O1         -0.7360   -0.8120    0.4970 o         1 T25     -0.852800
      2 C1          0.4920   -1.1050    0.4020 c         1 T25      0.907600
      3 O2          1.1170   -1.8010    1.2530 o         1 T25     -0.852800
      4 C2          1.2840   -0.5680   -0.8040 c3        1 T25     -0.194400
      5 C3          0.5250   -0.7700   -2.0920 c3        1 T25     -0.065400
      6 C4          1.2050   -0.0890   -3.2610 c3        1 T25     -0.078400
      7 C5          0.4470   -0.3140   -4.5520 c3        1 T25     -0.078400
      8 C6          1.1280    0.3660   -5.7210 c3        1 T25     -0.079400
      9 C7          0.3720    0.1360   -7.0120 c3        1 T25     -0.078400
     10 C8          1.0660    0.8070   -8.1800 c3        1 T25     -0.055200
     11 C9          0.3530    0.5870   -9.4600 c2        1 T25     -0.148200
     12 C10         0.7500    1.0600  -10.6460 c2        1 T25     -0.194200
     13 C11         1.9510    1.9010  -10.8590 c3        1 T25     -0.043200
     14 C12         2.6450    1.5790  -12.1510 cx        1 T25      0.073100
     15 O3          2.7640    2.6570  -13.0980 os        1 T25     -0.414600
     16 C13         3.9720    2.1730  -12.4860 cx        1 T25      0.061100
     17 C14         4.6710    3.1090  -11.5470 c3        1 T25     -0.075400
     18 C15         5.7750    3.8730  -12.2470 c3        1 T25     -0.076400
     19 C16         6.4720    4.8180  -11.2930 c3        1 T25     -0.080400
     20 C17         7.5820    5.5800  -11.9860 c3        1 T25     -0.079400
     21 C18         8.2780    6.5240  -11.0400 c3        1 T25     -0.093100
     22 H21         1.4660    0.5240   -0.6350 hc        1 T25      0.018700
     23 H22         2.2780   -1.0790   -0.8520 hc        1 T25      0.018700
     24 H31         0.4320   -1.8680   -2.3020 hc        1 T25      0.044200
     25 H32        -0.5160   -0.3690   -1.9630 hc        1 T25      0.044200
     26 H41         1.2830    1.0120   -3.0600 hc        1 T25      0.025700
     27 H42         2.2520   -0.4790   -3.3680 hc        1 T25      0.025700
     28 H51         0.3670   -1.4150   -4.7530 hc        1 T25      0.037700
     29 H52        -0.5980    0.0790   -4.4450 hc        1 T25      0.037700
     30 H61         1.2050    1.4680   -5.5210 hc        1 T25      0.034700
     31 H62         2.1750   -0.0240   -5.8230 hc        1 T25      0.034700
     32 H71         0.2870   -0.9660   -7.2060 hc        1 T25      0.040700
     33 H72        -0.6710    0.5360   -6.9130 hc        1 T25      0.040700
     34 H81         2.1170    0.4130   -8.2620 hc        1 T25      0.047200
     35 H82         1.1480    1.9100   -7.9810 hc        1 T25      0.047200
     36 H9         -0.5700   -0.0150   -9.3930 ha        1 T25      0.124000
     37 H10         0.1590    0.8520  -11.5530 ha        1 T25      0.120000
     38 H111        2.6860    1.7660  -10.0180 hc        1 T25      0.063700
     39 H112        1.6430    2.9850  -10.8600 hc        1 T25      0.063700
     40 H12         2.3520    0.6140  -12.6140 h1        1 T25      0.088700
     41 H13         4.6430    1.6420  -13.1910 h1        1 T25      0.082700
     42 H141        3.9310    3.8300  -11.1090 hc        1 T25      0.056700
     43 H142        5.1000    2.5080  -10.7020 hc        1 T25      0.056700
     44 H151        5.3420    4.4520  -13.1050 hc        1 T25      0.042700
     45 H152        6.5210    3.1530  -12.6750 hc        1 T25      0.042700
     46 H161        5.7280    5.5430  -10.8690 hc        1 T25      0.042200
     47 H162        6.8970    4.2390  -10.4310 hc        1 T25      0.042200
     48 H171        8.3250    4.8550  -12.4100 hc        1 T25      0.037200
     49 H172        7.1560    6.1570  -12.8490 hc        1 T25      0.037200
     50 H181        7.5580    7.2710  -10.6270 hc        1 T25      0.032367
     51 H182        9.0920    7.0750  -11.5700 hc        1 T25      0.032367
     52 H183        8.7300    5.9640  -10.1850 hc        1 T25      0.032367
@<TRIPOS>BOND
     1    1    2 1   
     2    2    3 1   
     3    2    4 1   
     4    4    5 1   
     5    4   22 1   
     6    4   23 1   
     7    5    6 1   
     8    5   24 1   
     9    5   25 1   
    10    6    7 1   
    11    6   26 1   
    12    6   27 1   
    13    7    8 1   
    14    7   28 1   
    15    7   29 1   
    16    8    9 1   
    17    8   30 1   
    18    8   31 1   
    19    9   10 1   
    20    9   32 1   
    21    9   33 1   
    22   10   11 1   
    23   10   34 1   
    24   10   35 1   
    25   11   12 2   
    26   11   36 1   
    27   12   13 1   
    28   12   37 1   
    29   13   14 1   
    30   13   38 1   
    31   13   39 1   
    32   14   15 1   
    33   14   16 1   
    34   14   40 1   
    35   15   16 1   
    36   16   17 1   
    37   16   41 1   
    38   17   18 1   
    39   17   42 1   
    40   17   43 1   
    41   18   19 1   
    42   18   44 1   
    43   18   45 1   
    44   19   20 1   
    45   19   46 1   
    46   19   47 1   
    47   20   21 1   
    48   20   48 1   
    49   20   49 1   
    50   21   50 1   
    51   21   51 1   
    52   21   52 1   
@<TRIPOS>SUBSTRUCTURE
     1 T25         1 TEMP              0 ****  ****    0 ROOT
