@<TRIPOS>MOLECULE
molecule
   52    52     1     0     0
SMALL
bcc


@<TRIPOS>ATOM
      1 O1           0.0000     0.0000     0.0000 o          1 T25      -0.856300
      2 C1           1.2090     0.0000     0.0000 c          1 T25       0.890600
      3 O2           1.8800     0.0000     1.1630 o          1 T25      -0.856300
      4 C2           1.9620    -0.0070    -1.3050 c3         1 T25      -0.183400
      5 C3           0.9680    -0.0120    -2.4680 c3         1 T25      -0.063400
      6 C4           1.7320    -0.0190    -3.7930 c3         1 T25      -0.088400
      7 C5           0.7380    -0.0240    -4.9560 c3         1 T25      -0.079400
      8 C6           1.5030    -0.0320    -6.2810 c3         1 T25      -0.088400
      9 C7           0.5090    -0.0370    -7.4440 c3         1 T25      -0.035400
     10 C8           1.2740    -0.0430    -8.7690 c3         1 T25      -0.114200
     11 C9           0.2950    -0.0490    -9.9140 c2         1 T25      -0.372200
     12 C10          0.3950     0.8450   -10.8670 c2         1 T25      -0.307200
     13 C11          1.5840     1.7700   -10.9090 c3         1 T25      -0.161200
     14 C12          2.2460     1.6860   -12.2870 cx         1 T25       0.096100
     15 O3           2.3020     2.8790   -13.0710 op         1 T25      -0.377600
     16 C13          3.5460     2.4630   -12.5010 cx         1 T25       0.035100
     17 C14          4.0960     3.2710   -11.3240 c3         1 T25      -0.067400
     18 C15          5.4540     3.8660   -11.7050 c3         1 T25      -0.079400
     19 C16          6.0040     4.6730   -10.5270 c3         1 T25      -0.082400
     20 C17          7.3620     5.2670   -10.9070 c3         1 T25      -0.083400
     21 C18          7.9120     6.0760    -9.7310 c3         1 T25      -0.092100
     22 H21          2.5850    -0.8920    -1.3570 hc         1 T25       0.026200
     23 H22          2.5850     0.8770    -1.3660 hc         1 T25       0.026200
     24 H31          0.3450    -0.8970    -2.4060 hc         1 T25       0.046200
     25 H32          0.3450     0.8720    -2.4150 hc         1 T25       0.046200
     26 H41          2.3550     0.8650    -3.8550 hc         1 T25       0.028700
     27 H42          2.3550    -0.9040    -3.8460 hc         1 T25       0.028700
     28 H51          0.1140    -0.9080    -4.8940 hc         1 T25       0.043200
     29 H52          0.1160     0.8610    -4.9040 hc         1 T25       0.043200
     30 H61          2.1260     0.8520    -6.3420 hc         1 T25       0.036700
     31 H62          2.1250    -0.9170    -6.3330 hc         1 T25       0.036700
     32 H71         -0.1140    -0.9210    -7.3820 hc         1 T25       0.060700
     33 H72         -0.1140     0.8480    -7.3900 hc         1 T25       0.060700
     34 H81          1.8970    -0.9280    -8.8220 hc         1 T25       0.031200
     35 H82          1.8960     0.8410    -8.8300 hc         1 T25       0.031200
     36 H9           1.2590    -0.5350   -10.0020 ha         1 T25       0.330000
     37 H10          0.4140     1.7550   -10.2800 ha         1 T25       0.326000
     38 H111         2.2970     1.4770   -10.1480 hc         1 T25       0.050200
     39 H112         1.2580     2.7870   -10.7260 hc         1 T25       0.050200
     40 H12          2.1640     0.7690   -12.8570 h1         1 T25       0.103700
     41 H13          4.2380     2.0090   -13.2000 h1         1 T25       0.091700
     42 H141         4.2140     2.6230   -10.4640 hc         1 T25       0.055700
     43 H142         3.4070     4.0710   -11.0810 hc         1 T25       0.055700
     44 H151         5.3360     4.5150   -12.5640 hc         1 T25       0.044200
     45 H152         6.1430     3.0660   -11.9480 hc         1 T25       0.044200
     46 H161         5.3150     5.4730   -10.2830 hc         1 T25       0.044200
     47 H162         6.1220     4.0240    -9.6680 hc         1 T25       0.044200
     48 H171         8.0510     4.4680   -11.1500 hc         1 T25       0.038700
     49 H172         7.2440     5.9160   -11.7670 hc         1 T25       0.038700
     50 H181         7.2230     6.8760    -9.4880 hc         1 T25       0.033700
     51 H182         8.8730     6.4970   -10.0000 hc         1 T25       0.033700
     52 H183         8.0300     5.4270    -8.8710 hc         1 T25       0.033700
@<TRIPOS>BOND
     1     4     5 1
     2     4     2 1
     3     5     6 1
     4     7     6 1
     5     7     8 1
     6     2     1 1
     7     2     3 1
     8     8     9 1
     9    21    20 1
    10     9    10 1
    11    20    19 1
    12    10    11 1
    13    19    18 1
    14    11    12 2
    15    18    17 1
    16    13    12 1
    17    13    14 1
    18    17    16 1
    19    14    16 1
    20    14    15 1
    21    16    15 1
    22     4    22 1
    23     4    23 1
    24     5    24 1
    25     5    25 1
    26     6    26 1
    27     6    27 1
    28     7    28 1
    29     7    29 1
    30     8    30 1
    31     8    31 1
    32     9    32 1
    33     9    33 1
    34    10    34 1
    35    10    35 1
    36    11    36 1
    37    12    37 1
    38    13    38 1
    39    13    39 1
    40    14    40 1
    41    16    41 1
    42    17    42 1
    43    17    43 1
    44    18    44 1
    45    18    45 1
    46    19    46 1
    47    19    47 1
    48    20    48 1
    49    20    49 1
    50    21    50 1
    51    21    51 1
    52    21    52 1
@<TRIPOS>SUBSTRUCTURE
     1 T25         1 TEMP              0 ****  ****    0 ROOT
