@<TRIPOS>MOLECULE
T26
   53    55     1     0     0
SMALL
bcc


@<TRIPOS>ATOM
      1 OE2          0.0000     0.0000     0.0000 o          1 T26      -0.920300
      2 CD           1.2080     0.0000     0.0000 c          1 T26       0.983600
      3 OE1          1.8790     0.0000     1.1620 o          1 T26      -0.920300
      4 CG           1.9620    -0.0070    -1.3050 c3         1 T26      -0.143400
      5 CB           0.9670    -0.0130    -2.4690 c3         1 T26      -0.012400
      6 C            0.7580     0.0970    -4.9370 c          1 T26       0.987600
      7 OXT         -0.0400     1.1720    -5.0300 o          1 T26      -0.908800
      8 O            0.6950    -0.7760    -5.7700 o          1 T26      -0.908800
      9 N            2.4810    -1.2740    -3.9170 ns         1 T26      -0.084900
     10 CAU          3.5820    -1.3270    -4.6930 c          1 T26       0.561700
     11 OBC          3.9550    -0.3340    -5.2880 o          1 T26      -0.686100
     12 CAT          4.3390    -2.5920    -4.8180 ca         1 T26      -0.056600
     13 CAS          5.4820    -2.6470    -5.6140 ca         1 T26      -0.121000
     14 CAQ          3.9140    -3.7320    -4.1340 ca         1 T26      -0.129000
     15 CAR          6.1860    -3.8360    -5.7260 ca         1 T26       0.032600
     16 CAO          4.6210    -4.9110    -4.2540 ca         1 T26      -0.074000
     17 CAP          5.7510    -4.9680    -5.0470 ca         1 T26      -0.205000
     18 CAA          9.2600    -4.9530    -7.5520 ca         1 T26      -0.062300
     19 CAN          8.0750    -5.1540    -6.6420 c3         1 T26       0.224100
     20 NAY          7.3320    -3.8980    -6.5240 nu         1 T26      -0.454600
     21 CAC         10.4740    -4.5520    -7.0230 ca         1 T26      -0.087500
     22 CAE         11.5640    -4.3720    -7.8480 ca         1 T26      -0.075500
     23 CAB          9.1280    -5.1770    -8.9120 ca         1 T26      -0.087500
     24 CAG         10.2080    -5.0010    -9.7510 ca         1 T26      -0.075500
     25 CAF         11.4400    -4.5950    -9.2240 ca         1 T26      -0.140800
     26 CAH         12.5970    -4.4040   -10.1120 ce         1 T26       0.163800
     27 CAI         13.8530    -4.4360    -9.6040 cd         1 T26      -0.168600
     28 SBG         14.3550    -4.8690    -7.9560 ss         1 T26      -0.156200
     29 CAL         16.0820    -4.6190    -8.2640 cs         1 T26       0.314000
     30 SBH         17.3580    -4.8290    -7.1430 s          1 T26      -0.495400
     31 NAX         16.1980    -4.2370    -9.5410 ns         1 T26      -0.011500
     32 CAK         15.1140    -4.1250   -10.2900 c          1 T26       0.596700
     33 CA           1.7320    -0.0210    -3.7930 c3         1 T26      -0.114300
     34 OBE         15.1570    -3.7870   -11.4580 o          1 T26      -0.614500
     35 HG1C         2.5840    -0.8930    -1.3580 hc         1 T26      -0.000800
     36 HG2C         2.5850     0.8760    -1.3670 hc         1 T26      -0.000800
     37 HB1C         0.3450     0.8720    -2.4160 hc         1 T26       0.036700
     38 HB2C         0.3430    -0.8970    -2.4060 hc         1 T26       0.036700
     39 HA           2.4210     0.8150    -3.8170 h1         1 T26       0.052700
     40 H            2.1500    -2.1020    -3.4620 hn         1 T26       0.160500
     41 HAQ          3.0290    -3.6920    -3.5110 ha         1 T26       0.123000
     42 HAS          5.8190    -1.7640    -6.1430 ha         1 T26       0.130000
     43 HAO          4.2880    -5.7960    -3.7240 ha         1 T26       0.089000
     44 HAP          6.3020    -5.8970    -5.1360 ha         1 T26       0.094000
     45 HAY          7.6330    -3.0890    -7.0320 hn         1 T26       0.295800
     46 HAC         10.5690    -4.3790    -5.9580 ha         1 T26       0.121000
     47 HAB          8.1740    -5.4910    -9.3180 ha         1 T26       0.121000
     48 HAN1         8.4200    -5.4630    -5.6630 h1         1 T26       0.015200
     49 HAN2         7.4280    -5.9190    -7.0550 h1         1 T26       0.015200
     50 HAE         12.5130    -4.0580    -7.4320 ha         1 T26       0.123500
     51 HAG         10.1040    -5.1760   -10.8150 ha         1 T26       0.123500
     52 HAH         12.4400    -4.1180   -11.1450 ha         1 T26       0.122000
     53 HAX         17.1000    -4.0420    -9.9280 hn         1 T26       0.196500
@<TRIPOS>BOND
     1     1     2 1   
     2     2     3 1   
     3     2     4 1   
     4     4     5 1   
     5     4    35 1   
     6     4    36 1   
     7     5    33 1   
     8     5    37 1   
     9     5    38 1   
    10     6     7 1   
    11     6     8 1   
    12     6    33 1   
    13     9    10 1   
    14     9    33 1   
    15     9    40 1   
    16    10    11 2   
    17    10    12 1   
    18    12    13 ar  
    19    12    14 ar  
    20    13    15 ar  
    21    13    42 1   
    22    14    16 ar  
    23    14    41 1   
    24    15    17 ar  
    25    15    20 1   
    26    16    17 ar  
    27    16    43 1   
    28    17    44 1   
    29    18    19 1   
    30    18    21 ar  
    31    18    23 ar  
    32    19    20 1   
    33    19    48 1   
    34    19    49 1   
    35    20    45 1   
    36    21    22 ar  
    37    21    46 1   
    38    22    25 ar  
    39    22    50 1   
    40    23    24 ar  
    41    23    47 1   
    42    24    25 ar  
    43    24    51 1   
    44    25    26 1   
    45    26    27 2   
    46    26    52 1   
    47    27    28 1   
    48    27    32 1   
    49    28    29 1   
    50    29    30 2   
    51    29    31 1   
    52    31    32 1   
    53    31    53 1   
    54    32    34 2   
    55    33    39 1   
@<TRIPOS>SUBSTRUCTURE
     1 T26         1 TEMP              0 ****  ****    0 ROOT
