@<TRIPOS>MOLECULE
molecule
   53    55     1     0     0
SMALL
bcc


@<TRIPOS>ATOM
      1 OE2          0.0000     0.0000     0.0000 o          1 T26      -0.873300
      2 CD           1.2080     0.0000     0.0000 c          1 T26       0.890600
      3 OE1          1.8790     0.0000     1.1620 o          1 T26      -0.873300
      4 CG           1.9620    -0.0070    -1.3050 c3         1 T26      -0.187400
      5 CB           0.9670    -0.0130    -2.4690 c3         1 T26      -0.059400
      6 C            0.7580     0.0970    -4.9370 c          1 T26       0.892600
      7 OXT         -0.0400     1.1720    -5.0300 o          1 T26      -0.859300
      8 O            0.6950    -0.7760    -5.7700 o          1 T26      -0.859300
      9 N            2.4810    -1.2740    -3.9170 ns         1 T26      -0.509900
     10 CAU          3.5820    -1.3270    -4.6930 c          1 T26       0.657700
     11 OBC          3.9550    -0.3340    -5.2880 o          1 T26      -0.637100
     12 CAT          4.3390    -2.5920    -4.8180 ca         1 T26      -0.059600
     13 CAS          5.4820    -2.6470    -5.6140 ca         1 T26      -0.149000
     14 CAQ          3.9140    -3.7320    -4.1340 ca         1 T26      -0.145000
     15 CAR          6.1860    -3.8360    -5.7260 ca         1 T26       0.168600
     16 CAO          4.6210    -4.9110    -4.2540 ca         1 T26      -0.106000
     17 CAP          5.7510    -4.9680    -5.0470 ca         1 T26      -0.216000
     18 CAA          9.2600    -4.9530    -7.5520 ca         1 T26      -0.066300
     19 CAN          8.0750    -5.1540    -6.6420 c3         1 T26       0.286100
     20 NAY          7.3320    -3.8980    -6.5240 nu         1 T26      -0.841600
     21 CAC         10.4740    -4.5520    -7.0230 ca         1 T26      -0.113500
     22 CAE         11.5640    -4.3720    -7.8480 ca         1 T26      -0.101000
     23 CAB          9.1280    -5.1770    -8.9120 ca         1 T26      -0.113500
     24 CAG         10.2080    -5.0010    -9.7510 ca         1 T26      -0.101000
     25 CAF         11.4400    -4.5950    -9.2240 ca         1 T26      -0.118800
     26 CAH         12.5970    -4.4040   -10.1120 ce         1 T26       0.077800
     27 CAI         13.8530    -4.4360    -9.6040 cd         1 T26      -0.167600
     28 SBG         14.3550    -4.8690    -7.9560 ss         1 T26      -0.057200
     29 CAL         16.0820    -4.6190    -8.2640 cs         1 T26       0.421000
     30 SBH         17.3580    -4.8290    -7.1430 s          1 T26      -0.475400
     31 NAX         16.1980    -4.2370    -9.5410 ns         1 T26      -0.496500
     32 CAK         15.1140    -4.1250   -10.2900 c          1 T26       0.692700
     33 CA           1.7320    -0.0210    -3.7930 c3         1 T26      -0.003300
     34 OBE         15.1570    -3.7870   -11.4580 o          1 T26      -0.586500
     35 HG1C         2.5850     0.8760    -1.3670 hc         1 T26       0.021700
     36 HG2C         2.5840    -0.8930    -1.3580 hc         1 T26       0.021700
     37 HB1C         0.3450     0.8720    -2.4160 hc         1 T26       0.060700
     38 HB2C         0.3430    -0.8970    -2.4060 hc         1 T26       0.060700
     39 HA           2.4210     0.8150    -3.8170 h1         1 T26       0.068700
     40 H            2.1500    -2.1020    -3.4620 hn         1 T26       0.302500
     41 HAQ          3.0290    -3.6920    -3.5110 ha         1 T26       0.147000
     42 HAS          5.8190    -1.7640    -6.1430 ha         1 T26       0.153000
     43 HAO          4.2880    -5.7960    -3.7240 ha         1 T26       0.117000
     44 HAP          6.3020    -5.8970    -5.1360 ha         1 T26       0.106000
     45 HAY          7.6330    -3.0890    -7.0320 hn         1 T26       0.439800
     46 HAC         10.5690    -4.3790    -5.9580 ha         1 T26       0.150500
     47 HAB          8.1740    -5.4910    -9.3180 ha         1 T26       0.150500
     48 HAN1         7.4280    -5.9190    -7.0550 h1         1 T26       0.043200
     49 HAN2         8.4200    -5.4630    -5.6630 h1         1 T26       0.043200
     50 HAE         12.5130    -4.0580    -7.4320 ha         1 T26       0.140500
     51 HAG         10.1040    -5.1760   -10.8150 ha         1 T26       0.140500
     52 HAH         12.4400    -4.1180   -11.1450 ha         1 T26       0.165000
     53 HAX         17.1000    -4.0420    -9.9280 hn         1 T26       0.357500
@<TRIPOS>BOND
     1     3     2 1
     2     2     1 1
     3     2     4 1
     4     4     5 1
     5     5    33 1
     6     6     7 1
     7     6     8 1
     8     6    33 1
     9     9    10 1
    10     9    33 1
    11    10    11 2
    12    10    12 1
    13    12    14 ar
    14    12    13 ar
    15    14    16 ar
    16    13    15 ar
    17    15    17 ar
    18    15    20 1
    19    17    16 ar
    20    18    21 ar
    21    18    23 ar
    22    18    19 1
    23    21    22 ar
    24    22    25 ar
    25    23    24 ar
    26    24    25 ar
    27    25    26 1
    28    26    27 2
    29    27    28 1
    30    27    32 1
    31    28    29 1
    32    29    30 2
    33    29    31 1
    34    31    32 1
    35    32    34 2
    36    19    20 1
    37     4    35 1
    38     4    36 1
    39     5    37 1
    40     5    38 1
    41    33    39 1
    42     9    40 1
    43    14    41 1
    44    13    42 1
    45    16    43 1
    46    17    44 1
    47    20    45 1
    48    21    46 1
    49    23    47 1
    50    19    48 1
    51    19    49 1
    52    22    50 1
    53    24    51 1
    54    26    52 1
    55    31    53 1
@<TRIPOS>SUBSTRUCTURE
     1 T26         1 TEMP              0 ****  ****    0 ROOT
