@<TRIPOS>MOLECULE
T27
   46    48     1     0     0
SMALL
bcc


@<TRIPOS>ATOM
      1 C1           0.0000     0.0000     0.0000 ca         1 T27      -0.076300
      2 N2           3.5060    -3.4950    -2.7710 nb         1 T27      -0.717000
      3 C3           0.0120    -0.0130     2.4030 ca         1 T27      -0.006800
      4 C4           1.4110    -0.0120     2.3980 ca         1 T27      -0.086000
      5 C5           2.0930     0.0000     1.2020 ca         1 T27      -0.076300
      6 C6           1.3910     0.0000     0.0000 ca         1 T27      -0.020400
      7 C7          -0.7530     0.0000    -1.3040 c3         1 T27       0.055200
      8 C2          -0.6890    -0.0070     1.1920 ca         1 T27      -0.086000
      9 C8           3.6000     0.0010     1.1950 c3         1 T27       0.055200
     10 N1           2.0860     0.0010    -1.2100 nu         1 T27      -0.324300
     11 C9           2.8950    -3.5510    -1.5970 ca         1 T27       0.501200
     12 C10          2.4000    -2.3880    -1.0360 ca         1 T27      -0.441600
     13 C11          2.5660    -1.1900    -1.7330 ca         1 T27       0.544200
     14 N3           3.1900    -1.2070    -2.9070 nb         1 T27      -0.677000
     15 C12          3.6490    -2.3430    -3.4100 ca         1 T27       0.736900
     16 N4           4.2940    -2.3260    -4.6360 nu         1 T27      -0.367300
     17 C13          5.4480    -5.9020    -6.4320 ca         1 T27      -0.006000
     18 C14          4.2840    -5.8500    -5.6590 ca         1 T27      -0.045500
     19 C15          3.9060    -4.6660    -5.0660 ca         1 T27      -0.138000
     20 C16          4.6810    -3.5230    -5.2360 ca         1 T27       0.013600
     21 C17          5.8390    -3.5710    -6.0060 ca         1 T27      -0.138000
     22 C18          6.2230    -4.7520    -6.6010 ca         1 T27      -0.045500
     23 N5           6.1680    -8.1180    -7.5140 n1         1 T27      -0.394800
     24 C19          5.8460    -7.1330    -7.0450 cg         1 T27       0.239800
     25 C20         -2.0700    -0.0270     3.6820 ce         1 T27      -0.012700
     26 C21         -0.7210    -0.0270     3.6780 cf         1 T27      -0.210200
     27 N6          -3.3220    -0.0480     6.0660 n1         1 T27      -0.385800
     28 C22         -2.7830    -0.0410     4.9230 cg         1 T27       0.509500
     29 H4           1.9570    -0.0170     3.3340 ha         1 T27       0.124500
     30 H7          -1.7430    -0.4130    -1.1500 hc         1 T27       0.015533
     31 H7A         -0.8390     1.0160    -1.6710 hc         1 T27       0.015533
     32 H7B         -0.2200    -0.6020    -2.0300 hc         1 T27       0.015533
     33 H2          -1.7730    -0.0070     1.1920 ha         1 T27       0.124500
     34 H8           3.9610    -1.0130     1.0740 hc         1 T27       0.015533
     35 H8A          3.9650     0.4050     2.1310 hc         1 T27       0.015533
     36 H8B          3.9560     0.6110     0.3740 hc         1 T27       0.015533
     37 HN1          2.5000     0.8470    -1.5480 hn         1 T27       0.295800
     38 H9           2.7860    -4.5010    -1.0880 h4         1 T27      -0.015900
     39 H10          1.8980    -2.4200    -0.0770 ha         1 T27       0.143000
     40 HN4          5.2900    -2.2310    -4.6760 hn         1 T27       0.303800
     41 H14          3.6810    -6.7410    -5.5260 ha         1 T27       0.111000
     42 H15          3.0050    -4.6230    -4.4660 ha         1 T27       0.129000
     43 H17          6.4060    -2.6660    -6.1900 ha         1 T27       0.129000
     44 H18          7.1250    -4.7900    -7.2000 ha         1 T27       0.111000
     45 H20         -2.6090    -0.0370     4.6210 ha         1 T27      -0.071000
     46 H21         -0.9330     0.9030     4.1910 ha         1 T27       0.122000
@<TRIPOS>BOND
     1     1     6 ar  
     2     1     7 1   
     3     1     8 ar  
     4     2    11 ar  
     5     2    15 ar  
     6     3     4 ar  
     7     3     8 ar  
     8     3    26 1   
     9     4     5 ar  
    10     4    29 1   
    11     5     6 ar  
    12     5     9 1   
    13     6    10 1   
    14     7    30 1   
    15     7    31 1   
    16     7    32 1   
    17     8    33 1   
    18     9    34 1   
    19     9    35 1   
    20     9    36 1   
    21    10    13 1   
    22    10    37 1   
    23    11    12 ar  
    24    11    38 1   
    25    12    13 ar  
    26    12    39 1   
    27    13    14 ar  
    28    14    15 ar  
    29    15    16 1   
    30    16    20 1   
    31    16    40 1   
    32    17    18 ar  
    33    17    22 ar  
    34    17    24 1   
    35    18    19 ar  
    36    18    41 1   
    37    19    20 ar  
    38    19    42 1   
    39    20    21 ar  
    40    21    22 ar  
    41    21    43 1   
    42    22    44 1   
    43    23    24 3   
    44    25    26 2   
    45    25    28 1   
    46    25    45 1   
    47    26    46 1   
    48    27    28 3   
@<TRIPOS>SUBSTRUCTURE
     1 T27         1 TEMP              0 ****  ****    0 ROOT
