@<TRIPOS>MOLECULE
molecule
   46    48     1     0     0
SMALL
bcc


@<TRIPOS>ATOM
      1 C1           0.0000     0.0000     0.0000 ca         1 T27      -0.088300
      2 N2           3.5060    -3.4950    -2.7710 nb         1 T27      -0.812000
      3 C3           0.0120    -0.0130     2.4030 ca         1 T27      -0.093800
      4 C4           1.4110    -0.0120     2.3980 ca         1 T27      -0.091500
      5 C5           2.0930     0.0000     1.2020 ca         1 T27      -0.088300
      6 C6           1.3910     0.0000     0.0000 ca         1 T27       0.145600
      7 C7          -0.7530     0.0000    -1.3040 c3         1 T27      -0.047800
      8 C2          -0.6890    -0.0070     1.1920 ca         1 T27      -0.091500
      9 C8           3.6000     0.0010     1.1950 c3         1 T27      -0.047800
     10 N1           2.0860     0.0010    -1.2100 nu         1 T27      -0.768300
     11 C9           2.8950    -3.5510    -1.5970 ca         1 T27       0.500200
     12 C10          2.4000    -2.3880    -1.0360 ca         1 T27      -0.453600
     13 C11          2.5660    -1.1900    -1.7330 ca         1 T27       0.733200
     14 N3           3.1900    -1.2070    -2.9070 nb         1 T27      -0.786000
     15 C12          3.6490    -2.3430    -3.4100 ca         1 T27       0.911900
     16 N4           4.2940    -2.3260    -4.6360 nu         1 T27      -0.636300
     17 C13          5.4480    -5.9020    -6.4320 ca         1 T27      -0.043000
     18 C14          4.2840    -5.8500    -5.6590 ca         1 T27      -0.071000
     19 C15          3.9060    -4.6660    -5.0660 ca         1 T27      -0.154500
     20 C16          4.6810    -3.5230    -5.2360 ca         1 T27       0.092600
     21 C17          5.8390    -3.5710    -6.0060 ca         1 T27      -0.154500
     22 C18          6.2230    -4.7520    -6.6010 ca         1 T27      -0.071000
     23 N5           6.1450    -8.1180    -7.5280 n1         1 T27      -0.369800
     24 C19          5.8460    -7.1330    -7.0450 cg         1 T27       0.242800
     25 C20         -2.0700    -0.0270     3.6820 ce         1 T27      -0.012700
     26 C21         -0.7210    -0.0270     3.6780 cf         1 T27      -0.171200
     27 N6          -2.9010     0.1650     6.1290 n1         1 T27      -0.312800
     28 C22         -2.7830    -0.0410     4.9230 cg         1 T27       0.139500
     29 H4           1.9570    -0.0170     3.3340 ha         1 T27       0.146000
     30 H7          -1.7720    -0.3250    -1.1330 hc         1 T27       0.050700
     31 H7A         -0.2710    -0.6750    -2.0000 hc         1 T27       0.050700
     32 H7B         -0.7580     1.0020    -1.7180 hc         1 T27       0.050700
     33 H2          -1.7730    -0.0070     1.1920 ha         1 T27       0.146000
     34 H8           3.9560     0.4970     0.3000 hc         1 T27       0.050700
     35 H8A          3.9650     0.5260     2.0690 hc         1 T27       0.050700
     36 H8B          3.9610    -1.0200     1.2090 hc         1 T27       0.050700
     37 HN1          2.5460     0.8330    -1.5210 hn         1 T27       0.458800
     38 H9           2.7860    -4.5010    -1.0880 h4         1 T27       0.032100
     39 H10          1.8980    -2.4200    -0.0770 ha         1 T27       0.156000
     40 HN4          5.2820    -2.1720    -4.6800 hn         1 T27       0.414800
     41 H14          3.6810    -6.7410    -5.5260 ha         1 T27       0.143500
     42 H15          3.0050    -4.6230    -4.4660 ha         1 T27       0.154000
     43 H17          6.4060    -2.6660    -6.1900 ha         1 T27       0.154000
     44 H18          7.1250    -4.7900    -7.2000 ha         1 T27       0.143500
     45 H20         -2.6140    -0.0170     2.7450 ha         1 T27       0.120000
     46 H21         -1.4090    -0.8340     3.8990 ha         1 T27       0.229000
@<TRIPOS>BOND
     1     1     6 ar
     2     1     7 1
     3     1     8 ar
     4     2    11 ar
     5     2    15 ar
     6     3     4 ar
     7     3     8 ar
     8     3    26 1
     9     4     5 ar
    10     5     6 ar
    11     5     9 1
    12     6    10 1
    13    10    13 1
    14    11    12 ar
    15    12    13 ar
    16    13    14 ar
    17    14    15 ar
    18    15    16 1
    19    16    20 1
    20    17    18 ar
    21    17    22 ar
    22    17    24 1
    23    18    19 ar
    24    19    20 ar
    25    20    21 ar
    26    21    22 ar
    27    23    24 3
    28    25    26 2
    29    25    28 1
    30    27    28 3
    31     4    29 1
    32     7    30 1
    33     7    31 1
    34     7    32 1
    35     8    33 1
    36     9    34 1
    37     9    35 1
    38     9    36 1
    39    10    37 1
    40    11    38 1
    41    12    39 1
    42    16    40 1
    43    18    41 1
    44    19    42 1
    45    21    43 1
    46    22    44 1
    47    25    45 1
    48    26    46 1
@<TRIPOS>SUBSTRUCTURE
     1 T27         1 TEMP              0 ****  ****    0 ROOT
