@<TRIPOS>MOLECULE
molecule
   33    36     1     0     0
SMALL
bcc


@<TRIPOS>ATOM
      1 Br1          0.0000     0.0000     0.0000 br         1 T28      -0.104100
      2 C12          1.8910     0.0000     0.0000 ca         1 T28      -0.045900
      3 C6           2.5630     0.0000     1.2100 ca         1 T28      -0.043000
      4 C2           3.9580    -0.0020     1.1580 ca         1 T28      -0.066800
      5 C5           4.6480    -0.0060    -0.0830 ca         1 T28      -0.040200
      6 C11          3.9470    -0.0050    -1.2850 ca         1 T28      -0.142000
      7 C17          2.5650    -0.0070    -1.2110 ca         1 T28      -0.090000
      8 C1           4.9890     0.0030     2.1750 cc         1 T28      -0.223000
      9 C4           6.1940    -0.0150     1.5390 cd         1 T28      -0.030300
     10 N9           5.9890    -0.0140     0.1910 na         1 T28      -0.161400
     11 C3           4.9140     0.0360     3.6490 ca         1 T28       0.590100
     12 N8           4.0950    -0.7320     4.3500 nb         1 T28      -0.769000
     13 C15          4.1270    -0.6950     5.6770 ca         1 T28       0.937900
     14 N20          3.2600    -1.5010     6.3930 nv         1 T28      -1.012500
     15 N19          4.9660     0.0940     6.3330 nb         1 T28      -0.790000
     16 C13          5.7930     0.9090     5.6910 ca         1 T28       0.493200
     17 C7           5.7720     0.9250     4.3150 ca         1 T28      -0.377900
     18 C14          6.5500     1.9190     3.5130 c3         1 T28      -0.022100
     19 C16          7.8200     1.3380     2.8780 c3         1 T28      -0.069400
     20 C10          7.5070    -0.0310     2.2680 c3         1 T28      -0.020200
     21 H6           2.0540    -0.3160     2.1120 ha         1 T28       0.167000
     22 H11          4.4610    -0.0110    -2.2390 ha         1 T28       0.137000
     23 H17          1.9910    -0.0140    -2.1290 ha         1 T28       0.141000
     24 H1           6.7140    -0.0190    -0.4990 hn         1 T28       0.299700
     25 H201         3.0700    -2.4330     6.0810 hn         1 T28       0.447800
     26 H202         2.8410    -1.1600     7.2350 hn         1 T28       0.447800
     27 H13          6.4740     1.5490     6.2400 h4         1 T28       0.027100
     28 H142         6.8330     2.7390     4.1620 hc         1 T28       0.053200
     29 H141         5.9130     2.2990     2.7240 hc         1 T28       0.053200
     30 H162         8.5830     1.2260     3.6390 hc         1 T28       0.047200
     31 H161         8.1720     2.0060     2.1010 hc         1 T28       0.047200
     32 H102         7.4620    -0.7690     3.0600 hc         1 T28       0.058200
     33 H101         8.2940    -0.2970     1.5730 hc         1 T28       0.058200
@<TRIPOS>BOND
     1    14    13 1
     2    15    13 ar
     3    15    16 ar
     4    13    12 ar
     5    16    17 ar
     6     1     2 1
     7    12    11 ar
     8    17    11 ar
     9    17    18 1
    10    11     8 1
    11     3     2 ar
    12     3     4 ar
    13     2     7 ar
    14    18    19 1
    15     4     8 1
    16     4     5 ar
    17     8     9 2
    18     7     6 ar
    19    19    20 1
    20     5     6 ar
    21     5    10 1
    22     9    20 1
    23     9    10 1
    24     3    21 1
    25     6    22 1
    26     7    23 1
    27    10    24 1
    28    14    25 1
    29    14    26 1
    30    16    27 1
    31    18    28 1
    32    18    29 1
    33    19    30 1
    34    19    31 1
    35    20    32 1
    36    20    33 1
@<TRIPOS>SUBSTRUCTURE
     1 T28         1 TEMP              0 ****  ****    0 ROOT
