@<TRIPOS>MOLECULE
molecule
   50    53     1     0     0
SMALL
bcc


@<TRIPOS>ATOM
      1 N1           0.0000     0.0000     0.0000 na         1 T2A       0.160300
      2 C5           2.0590     0.0000    -1.2310 cc         1 T2A       0.580200
      3 C6           1.3850     0.0000     0.0000 cc         1 T2A      -0.352600
      4 C7           1.7770     0.0000     1.3280 cd         1 T2A       0.109400
      5 C10         -1.7940     0.0000     1.7630 ca         1 T2A      -0.102900
      6 C13         -4.4190     0.0100     2.6450 ca         1 T2A      -0.115000
      7 C15         -2.8290     0.3180     0.8810 ca         1 T2A      -0.094500
      8 C20          0.3250     0.4250    -7.0840 ca         1 T2A       0.173600
      9 C21          1.4820    -0.3430    -7.1310 ca         1 T2A       0.032100
     10 C22          1.9280    -0.9980    -5.9890 ca         1 T2A       0.173600
     11 N2          -0.6670     0.0050    -1.2300 nc         1 T2A      -0.621800
     12 C3           0.0270     0.0040    -2.3450 cd         1 T2A       0.917900
     13 N4           1.3650    -0.0030    -2.3470 nd         1 T2A      -0.793000
     14 N8           0.6770    -0.0000     2.0720 nd         1 T2A      -0.578300
     15 C9          -0.3930    -0.0010     1.2930 cc         1 T2A       0.472400
     16 C11         -2.0890    -0.3130     3.0920 ca         1 T2A      -0.094500
     17 C12         -3.3980    -0.3060     3.5240 ca         1 T2A      -0.137500
     18 C14         -4.1340     0.3210     1.3270 ca         1 T2A      -0.137500
     19 C16          3.1950    -0.0000     1.8360 c3         1 T2A      -0.016900
     20 N17         -0.6480     0.0080    -3.5580 nu         1 T2A      -0.747300
     21 C18          0.0650    -0.1110    -4.7560 ca         1 T2A       0.226600
     22 C19         -0.3790     0.5430    -5.8970 ca         1 T2A      -0.268000
     23 C23          1.2180    -0.8850    -4.8040 ca         1 T2A      -0.268000
     24 C25          3.4580    -2.3960    -4.8230 c3         1 T2A       0.125700
     25 O26          2.1790    -0.4550    -8.2960 os         1 T2A      -0.322900
     26 C27          3.2030     0.5120    -8.5350 c3         1 T2A       0.134700
     27 O28         -0.1100     1.0660    -8.2010 os         1 T2A      -0.308400
     28 C29         -1.3060     1.8390    -8.0800 c3         1 T2A       0.125700
     29 H5           3.1420    -0.0060    -1.2610 h4         1 T2A       0.043100
     30 H13         -5.4460     0.0140     2.9910 ha         1 T2A       0.130000
     31 H15         -2.6070     0.5610    -0.1510 ha         1 T2A       0.153000
     32 H11         -1.2900    -0.5600     3.7810 ha         1 T2A       0.153000
     33 H12         -3.6280    -0.5480     4.5550 ha         1 T2A       0.132500
     34 H14         -4.9380     0.5680     0.6440 ha         1 T2A       0.132500
     35 H16          3.7150     0.8720     1.4570 hc         1 T2A       0.053033
     36 H16A         3.7000    -0.8960     1.4970 hc         1 T2A       0.053033
     37 H16B         3.1910     0.0240     2.9190 hc         1 T2A       0.053033
     38 HN17        -1.6480     0.0580    -3.5740 hn         1 T2A       0.471800
     39 H19         -1.2810     1.1420    -5.8610 ha         1 T2A       0.151500
     40 H23          1.5650    -1.3950    -3.9140 ha         1 T2A       0.151500
     41 H25          4.3400    -2.9970    -5.0070 h1         1 T2A       0.042700
     42 H25A         2.6740    -3.0220    -4.4140 h1         1 T2A       0.042700
     43 H25B         3.6980    -1.6100    -4.1170 h1         1 T2A       0.042700
     44 H27          4.1610     0.0130    -8.6110 h1         1 T2A       0.033367
     45 H27A         2.9950     1.0360    -9.4600 h1         1 T2A       0.033367
     46 H27B         3.2290     1.2210    -7.7160 h1         1 T2A       0.033367
     47 H29         -1.1630     2.6110    -7.3350 h1         1 T2A       0.042700
     48 H29A        -1.5380     2.2970    -9.0340 h1         1 T2A       0.042700
     49 H29B        -2.1240     1.1940    -7.7810 h1         1 T2A       0.042700
     50 O24          3.0600    -1.7510    -6.0340 os         1 T2A      -0.308400
@<TRIPOS>BOND
     1     3     1 1
     2    11     1 1
     3     1    15 1
     4    13     2 2
     5     2     3 1
     6     2    29 1
     7     3     4 2
     8    19     4 1
     9     4    14 1
    10    15     5 1
    11     7     5 ar
    12     5    16 ar
    13    18     6 ar
    14     6    17 ar
    15     6    30 1
    16     7    18 ar
    17     7    31 1
    18     9     8 ar
    19    22     8 ar
    20     8    27 1
    21    10     9 ar
    22     9    25 1
    23    50    10 1
    24    23    10 ar
    25    12    11 2
    26    13    12 1
    27    20    12 1
    28    14    15 2
    29    16    17 ar
    30    16    32 1
    31    17    33 1
    32    18    34 1
    33    19    35 1
    34    19    36 1
    35    19    37 1
    36    20    21 1
    37    20    38 1
    38    23    21 ar
    39    21    22 ar
    40    22    39 1
    41    23    40 1
    42    24    50 1
    43    24    41 1
    44    24    42 1
    45    24    43 1
    46    25    26 1
    47    26    44 1
    48    26    45 1
    49    26    46 1
    50    27    28 1
    51    28    47 1
    52    28    48 1
    53    28    49 1
@<TRIPOS>SUBSTRUCTURE
     1 T2A         1 TEMP              0 ****  ****    0 ROOT
