@<TRIPOS>MOLECULE
molecule
   37    38     1     0     0
SMALL
bcc


@<TRIPOS>ATOM
      1 O4           0.0000     0.0000     0.0000 oh         1 T2B      -0.625800
      2 C17          1.4290     0.0000     0.0000 c3         1 T2B       0.113400
      3 C15          1.9390     0.0000     1.4420 c3         1 T2B       0.109500
      4 N1           1.5500    -1.2550     2.0990 nz         1 T2B      -0.805600
      5 C13          3.4650     0.1260     1.4440 c3         1 T2B      -0.049100
      6 C1           3.9560     0.2500     2.8630 ca         1 T2B      -0.165300
      7 C11          4.2800    -0.8850     3.5820 ca         1 T2B      -0.086500
      8 C9           4.7320    -0.7760     4.8830 ca         1 T2B       0.033400
      9 I3           5.2220    -2.4970     5.9740 i          1 T2B      -0.078900
     10 C7           4.8610     0.4760     5.4690 ca         1 T2B       0.194100
     11 C5           4.5350     1.6150     4.7440 ca         1 T2B       0.033400
     12 I1           4.7300     3.5070     5.6200 i          1 T2B      -0.078900
     13 C3           4.0890     1.4990     3.4400 ca         1 T2B      -0.086500
     14 O2           5.3040     0.5890     6.7480 os         1 T2B      -0.240200
     15 C2           6.6430     0.7100     6.9510 ca         1 T2B       0.105100
     16 C12          7.1410     0.8260     8.2410 ca         1 T2B      -0.156500
     17 C10          8.5020     0.9490     8.4470 ca         1 T2B      -0.114000
     18 C8           9.3700     0.9570     7.3650 ca         1 T2B       0.095100
     19 O1          10.7080     1.0790     7.5680 oh         1 T2B      -0.513100
     20 C6           8.8710     0.8400     6.0750 ca         1 T2B      -0.114000
     21 C4           7.5110     0.7110     5.8700 ca         1 T2B      -0.156500
     22 H1          -0.3140     0.2280    -0.8590 ho         1 T2B       0.453000
     23 H2           1.7900     0.8850    -0.5110 h1         1 T2B       0.067200
     24 H3           1.7910    -0.8850    -0.5110 h1         1 T2B       0.067200
     25 H4           1.5070     0.8370     1.9780 hx         1 T2B       0.130700
     26 H5           1.5930    -1.1390     3.0920 hn         1 T2B       0.459800
     27 H6           0.6160    -1.4960     1.8320 hn         1 T2B       0.459800
     28 H8           3.7550     1.0060     0.8820 hc         1 T2B       0.090200
     29 H9           3.9000    -0.7540     0.9860 hc         1 T2B       0.090200
     30 H10          4.2150    -1.8600     3.1130 ha         1 T2B       0.144000
     31 H11          3.8350     2.3870     2.8740 ha         1 T2B       0.144000
     32 H12          6.4630     0.8210     9.0860 ha         1 T2B       0.143000
     33 H13          8.8910     1.0400     9.4540 ha         1 T2B       0.154000
     34 H14         10.9450     1.9910     7.5620 ho         1 T2B       0.425000
     35 H15          9.5490     0.8440     5.2300 ha         1 T2B       0.154000
     36 H16          7.1220     0.6200     4.8630 ha         1 T2B       0.143000
     37 H131         2.1690    -1.9870     1.8130 hn         1 T2B       0.459800
@<TRIPOS>BOND
     1    19    18 1
     2    18    17 ar
     3    18    20 ar
     4    17    16 ar
     5    20    21 ar
     6    16    15 ar
     7    21    15 ar
     8    15    14 1
     9     9     8 1
    10    14    10 1
    11    10     8 ar
    12    10    11 ar
    13     8     7 ar
    14    12    11 1
    15    11    13 ar
    16     7     6 ar
    17    13     6 ar
    18     3     4 1
    19     3     2 1
    20     3     5 1
    21     6     5 1
    22     2     1 1
    23     1    22 1
    24     2    23 1
    25     2    24 1
    26     3    25 1
    27     4    26 1
    28     4    27 1
    29     5    28 1
    30     5    29 1
    31     7    30 1
    32    13    31 1
    33    16    32 1
    34    17    33 1
    35    19    34 1
    36    20    35 1
    37    21    36 1
    38    37     4 1
@<TRIPOS>SUBSTRUCTURE
     1 T2B         1 TEMP              0 ****  ****    0 ROOT
