@<TRIPOS>MOLECULE
T2B
   37    38     1     0     0
SMALL
bcc


@<TRIPOS>ATOM
      1 O4           0.0000     0.0000     0.0000 oh         1 T2B      -0.611800
      2 C17          1.4290     0.0000     0.0000 c3         1 T2B       0.214400
      3 C15          1.9390     0.0000     1.4420 c3         1 T2B      -0.082500
      4 N1           1.5500    -1.2550     2.0990 nz         1 T2B       0.066400
      5 C13          3.4650     0.1260     1.4440 c3         1 T2B       0.039900
      6 C1           3.9560     0.2500     2.8630 ca         1 T2B      -0.184300
      7 C11          4.2800    -0.8850     3.5820 ca         1 T2B      -0.076000
      8 C9           4.7320    -0.7760     4.8830 ca         1 T2B       0.134400
      9 I3           5.2220    -2.4970     5.9740 i          1 T2B      -0.154900
     10 C7           4.8610     0.4760     5.4690 ca         1 T2B       0.192100
     11 C5           4.5350     1.6150     4.7440 ca         1 T2B       0.134400
     12 I1           4.7300     3.5070     5.6200 i          1 T2B      -0.154900
     13 C3           4.0890     1.4990     3.4400 ca         1 T2B      -0.076000
     14 O2           5.3040     0.5890     6.7480 os         1 T2B      -0.209200
     15 C2           6.6430     0.7100     6.9510 ca         1 T2B       0.108100
     16 C12          7.1410     0.8260     8.2410 ca         1 T2B      -0.140500
     17 C10          8.5020     0.9490     8.4470 ca         1 T2B      -0.094500
     18 C8           9.3700     0.9570     7.3650 ca         1 T2B       0.107100
     19 O1          10.7080     1.0790     7.5680 oh         1 T2B      -0.493100
     20 C6           8.8710     0.8400     6.0750 ca         1 T2B      -0.094500
     21 C4           7.5110     0.7110     5.8700 ca         1 T2B      -0.140500
     22 H1          -0.3140     0.2280    -0.8590 ho         1 T2B       0.444000
     23 H2           1.7900     0.8850    -0.5110 h1         1 T2B       0.025200
     24 H3           1.7910    -0.8850    -0.5110 h1         1 T2B       0.025200
     25 H4           1.5070     0.8370     1.9780 hx         1 T2B       0.104700
     26 H5           1.5930    -1.1390     3.0920 hn         1 T2B       0.231133
     27 H6           0.6160    -1.4960     1.8320 hn         1 T2B       0.231133
     28 H8           3.7550     1.0060     0.8820 hc         1 T2B       0.053200
     29 H9           3.9000    -0.7540     0.9860 hc         1 T2B       0.053200
     30 H10          4.2150    -1.8600     3.1130 ha         1 T2B       0.117500
     31 H11          3.8350     2.3870     2.8740 ha         1 T2B       0.117500
     32 H12          6.4630     0.8210     9.0860 ha         1 T2B       0.117000
     33 H13          8.8910     1.0400     9.4540 ha         1 T2B       0.120500
     34 H14         10.9450     1.9910     7.5620 ho         1 T2B       0.407000
     35 H15          9.5490     0.8440     5.2300 ha         1 T2B       0.120500
     36 H16          7.1220     0.6200     4.8630 ha         1 T2B       0.117000
     37 H131         2.1690    -1.9870     1.8130 hn         1 T2B       0.231133
@<TRIPOS>BOND
     1     1     2 1   
     2     1    22 1   
     3     2     3 1   
     4     2    23 1   
     5     2    24 1   
     6     3     4 1   
     7     3     5 1   
     8     3    25 1   
     9     4    26 1   
    10     4    27 1   
    11     4    37 1   
    12     5     6 1   
    13     5    28 1   
    14     5    29 1   
    15     6     7 ar  
    16     6    13 ar  
    17     7     8 ar  
    18     7    30 1   
    19     8     9 1   
    20     8    10 ar  
    21    10    11 ar  
    22    10    14 1   
    23    11    12 1   
    24    11    13 ar  
    25    13    31 1   
    26    14    15 1   
    27    15    16 ar  
    28    15    21 ar  
    29    16    17 ar  
    30    16    32 1   
    31    17    18 ar  
    32    17    33 1   
    33    18    19 1   
    34    18    20 ar  
    35    19    34 1   
    36    20    21 ar  
    37    20    35 1   
    38    21    36 1   
@<TRIPOS>SUBSTRUCTURE
     1 T2B         1 TEMP              0 ****  ****    0 ROOT
