@<TRIPOS>MOLECULE
molecule
   22    23     1     0     0
SMALL
bcc


@<TRIPOS>ATOM
      1 C1           0.0000     0.0000     0.0000 ca         1 T2D      -0.110500
      2 C2           1.3940     0.0000     0.0000 ca         1 T2D      -0.124000
      3 C3           2.0920     0.0000     1.2080 ca         1 T2D      -0.114000
      4 C4           1.3950     0.0000     2.4160 ca         1 T2D      -0.124000
      5 C5          -0.0010     0.0000     2.4170 ca         1 T2D      -0.110500
      6 C6          -0.6980    -0.0000     1.2090 ca         1 T2D       0.081600
      7 N7          -2.1360    -0.0010     1.2090 nh         1 T2D      -0.616900
      8 S8          -2.9070     1.5200     0.9500 s6         1 T2D       1.394500
      9 N9          -4.4070     0.7610     0.6770 ns         1 T2D      -0.660300
     10 C10         -4.3180    -0.6460     0.4730 c          1 T2D       0.710500
     11 C11         -2.8760    -1.1260     0.5610 c3         1 T2D       0.144800
     12 O12         -5.2710    -1.3650     0.2060 o          1 T2D      -0.557500
     13 O13         -2.9350     2.2730     2.1850 o          1 T2D      -0.583800
     14 O14         -2.4460     2.1080    -0.2920 o          1 T2D      -0.583800
     15 H1          -0.5420    -0.0000    -0.9380 ha         1 T2D       0.148000
     16 H2           1.9350     0.0000    -0.9380 ha         1 T2D       0.140500
     17 H3           3.1750    -0.0000     1.2070 ha         1 T2D       0.137000
     18 H4           1.9370     0.0010     3.3550 ha         1 T2D       0.140500
     19 H5          -0.5420     0.0000     3.3550 ha         1 T2D       0.148000
     20 H9          -5.2740     1.2600     0.6620 hn         1 T2D       0.355500
     21 H111        -2.8150    -2.0170     1.1730 h1         1 T2D       0.092700
     22 H112        -2.4820    -1.3130    -0.4300 h1         1 T2D       0.092700
@<TRIPOS>BOND
     1     1     2 ar
     2     1     6 ar
     3     1    15 1
     4     2     3 ar
     5     2    16 1
     6     3     4 ar
     7     3    17 1
     8     4     5 ar
     9     4    18 1
    10     5     6 ar
    11     5    19 1
    12     6     7 1
    13     7     8 1
    14     7    11 1
    15     8     9 1
    16     8    13 2
    17     8    14 2
    18     9    10 1
    19     9    20 1
    20    10    11 1
    21    10    12 2
    22    11    21 1
    23    11    22 1
@<TRIPOS>SUBSTRUCTURE
     1 T2D         1 TEMP              0 ****  ****    0 ROOT
