@<TRIPOS>MOLECULE
T2M
   25    24     1     0     0
SMALL
bcc


@<TRIPOS>ATOM
      1 C1           0.0000     0.0000     0.0000 c3         1 T2M       0.218100
      2 N2           1.4660     0.0000     0.0000 n3         1 T2M      -0.134200
      3 N3           2.1650     0.0000     1.2130 ns         1 T2M      -0.120300
      4 C4           2.5020    -1.1670     1.7960 c          1 T2M       0.679100
      5 O5           3.1100    -1.1660     2.8480 o          1 T2M      -0.638000
      6 O6           2.1670    -2.3310     1.2140 os         1 T2M      -0.427900
      7 C7           2.5300    -3.5890     1.8430 c3         1 T2M       0.231800
      8 C8           2.0310    -4.7520     0.9820 c3         1 T2M      -0.037767
      9 C9           4.0500    -3.6710     1.9790 c3         1 T2M      -0.037767
     10 C10          1.8870    -3.6700     3.2290 c3         1 T2M      -0.037767
     11 C11          2.1410    -0.0000    -1.1730 c1         1 T2M       0.232600
     12 N12          2.7030    -0.0200    -2.1610 n1         1 T2M      -0.398800
     13 H11         -0.3060     0.9580     0.4040 h1         1 T2M       0.022033
     14 H12         -0.2100    -0.3740    -0.9950 h1         1 T2M       0.022033
     15 H13         -0.2730    -0.8060     0.6700 h1         1 T2M       0.022033
     16 HN3          2.4020     0.7140     1.8720 hn         1 T2M       0.224500
     17 H81          2.4880    -4.7290    -0.0000 hc         1 T2M       0.019811
     18 H82          2.0550    -5.7630     1.3690 hc         1 T2M       0.019811
     19 H83          0.9730    -4.7100     0.7530 hc         1 T2M       0.019811
     20 H91          4.6740    -3.1640     2.7050 hc         1 T2M       0.019811
     21 H92          4.0920    -4.7320     1.7650 hc         1 T2M       0.019811
     22 H93          4.2760    -3.1880     1.0360 hc         1 T2M       0.019811
     23 H101         2.5000    -3.1390     3.9470 hc         1 T2M       0.019811
     24 H102         1.0360    -3.0150     3.3690 hc         1 T2M       0.019811
     25 H103         1.5330    -4.6580     3.4990 hc         1 T2M       0.019811
@<TRIPOS>BOND
     1     1     2 1   
     2     1    13 1   
     3     1    14 1   
     4     1    15 1   
     5     2     3 1   
     6     2    11 1   
     7     3     4 1   
     8     3    16 1   
     9     4     5 2   
    10     4     6 1   
    11     6     7 1   
    12     7     8 1   
    13     7     9 1   
    14     7    10 1   
    15     8    17 1   
    16     8    18 1   
    17     8    19 1   
    18     9    20 1   
    19     9    21 1   
    20     9    22 1   
    21    10    23 1   
    22    10    24 1   
    23    10    25 1   
    24    11    12 3   
@<TRIPOS>SUBSTRUCTURE
     1 T2M         1 TEMP              0 ****  ****    0 ROOT
