@<TRIPOS>MOLECULE
T2P
   48    49     1     0     0
SMALL
bcc


@<TRIPOS>ATOM
      1 O33         3.9730    5.4260   -5.4330 o         1 T2P     -0.922500
      2 P           3.7260    4.9630   -4.0030 p5        1 T2P      1.343900
      3 O31         4.8130    5.0910   -2.9920 o         1 T2P     -0.922500
      4 O32         2.3020    5.3120   -3.6400 o         1 T2P     -0.922500
      5 O27         3.5910    3.2830   -4.3250 os        1 T2P     -0.593200
      6 C17         2.8450    2.5910   -3.3900 c3        1 T2P      0.192400
      7 C16         2.4880    1.1950   -3.9100 c3        1 T2P     -0.124400
      8 C15         1.0440    1.0320   -4.3860 c3        1 T2P      0.051000
      9 N5          0.6380    1.7660   -5.5790 n         1 T2P     -0.247000
     10 C6          1.6260    1.7420   -6.6630 c         1 T2P      0.753500
     11 O6          2.0480    0.7140   -7.2180 o         1 T2P     -0.636500
     12 C9          0.3860    3.1670   -5.3840 cc        1 T2P     -0.281600
     13 C4         -0.4180    3.7900   -4.3440 c         1 T2P      0.775700
     14 O4         -1.0900    3.1810   -3.4820 o         1 T2P     -0.698500
     15 N3         -0.4690    5.1960   -4.3930 n         1 T2P     -0.548500
     16 C2          0.4100    5.9590   -5.2100 c         1 T2P      0.855500
     17 O2          0.3350    7.2060   -5.1590 o         1 T2P     -0.671500
     18 C8          1.1700    3.9450   -6.2540 cd        1 T2P      0.171200
     19 N1          1.2070    5.3440   -6.2390 n         1 T2P     -0.402100
     20 N7          1.8960    3.0920   -7.1440 n         1 T2P     -0.312000
     21 C10         3.2710    3.4160   -7.4790 c3        1 T2P      0.027000
     22 C11         3.4130    4.5070   -8.5510 c3        1 T2P      0.124100
     23 O19         3.4030    3.8750   -9.8300 oh        1 T2P     -0.625800
     24 C12         4.7490    5.2470   -8.3570 c3        1 T2P      0.042100
     25 O21         5.8540    4.4850   -8.8240 oh        1 T2P     -0.628800
     26 C13         4.7360    6.5850   -9.1190 c3        1 T2P      0.073100
     27 O23         4.8930    6.3620  -10.5150 oh        1 T2P     -0.631800
     28 C14         5.8380    7.5110   -8.5980 c3        1 T2P      0.105400
     29 O26         7.1210    7.0350   -8.9640 oh        1 T2P     -0.635800
     30 H171        1.9090    3.1700   -3.1390 h1        1 T2P      0.013700
     31 H172        3.4490    2.4710   -2.4440 h1        1 T2P      0.013700
     32 H161        3.1910    0.9310   -4.7440 hc        1 T2P      0.031700
     33 H162        2.6400    0.4500   -3.0850 hc        1 T2P      0.031700
     34 H151        0.3400    1.3340   -3.5590 h1        1 T2P      0.053200
     35 H152        0.8740   -0.0550   -4.6320 h1        1 T2P      0.053200
     36 H3         -0.7010    5.6480   -3.5320 hn        1 T2P      0.326500
     37 H1          2.1960    5.6850   -6.1600 hn        1 T2P      0.404500
     38 H101        3.7600    2.4750   -7.8580 h1        1 T2P      0.128200
     39 H102        3.8070    3.7860   -6.5270 h1        1 T2P      0.128200
     40 H11         2.5740    5.2530   -8.4990 h1        1 T2P      0.061700
     41 H19         3.4600    4.5870  -10.4810 ho        1 T2P      0.397000
     42 H12         4.9220    5.4260   -7.2420 h1        1 T2P      0.205700
     43 H21         5.5300    3.8780   -9.5020 ho        1 T2P      0.404000
     44 H13         3.7360    7.0870   -9.0140 h1        1 T2P      0.084700
     45 H23         5.7900    6.0180  -10.6320 ho        1 T2P      0.408000
     46 H141        5.7620    8.5200   -9.0830 h1        1 T2P      0.058200
     47 H142        5.7530    7.6070   -7.4820 h1        1 T2P      0.058200
     48 H26         7.2230    6.1650   -8.5520 ho        1 T2P      0.428000
@<TRIPOS>BOND
     1    1    2 1
     2    2    3 1
     3    2    4 1
     4    2    5 1
     5    5    6 1
     6    6    7 1
     7    6   30 1
     8    6   31 1
     9    7    8 1
    10    7   32 1
    11    7   33 1
    12    8    9 1
    13    8   34 1
    14    8   35 1
    15    9   10 1
    16    9   12 1
    17   10   11 2
    18   10   20 1
    19   12   13 1
    20   12   18 2
    21   13   14 2
    22   13   15 1
    23   15   16 1
    24   15   36 1
    25   16   17 2
    26   16   19 1
    27   18   19 1
    28   18   20 1
    29   19   37 1
    30   20   21 1
    31   21   22 1
    32   21   38 1
    33   21   39 1
    34   22   23 1
    35   22   24 1
    36   22   40 1
    37   23   41 1
    38   24   25 1
    39   24   26 1
    40   24   42 1
    41   25   43 1
    42   26   27 1
    43   26   28 1
    44   26   44 1
    45   27   45 1
    46   28   29 1
    47   28   46 1
    48   28   47 1
    49   29   48 1
@<TRIPOS>SUBSTRUCTURE
     1 T2P         1 TEMP              0 ****  ****    0 ROOT
