@<TRIPOS>MOLECULE
molecule
   35    36     1     0     0
SMALL
bcc


@<TRIPOS>ATOM
      1 C1           0.0000     0.0000     0.0000 ca         1 T3       -0.128300
      2 C2           2.2560     1.3020     3.9140 ca         1 T3        0.092100
      3 C3           1.3820     0.0000     0.0000 ca         1 T3       -0.089000
      4 C4           1.7870     2.3130     3.0880 ca         1 T3       -0.168000
      5 C5           2.0740     0.0000     1.1950 ca         1 T3        0.035400
      6 C6           1.9840     3.6360     3.4360 ca         1 T3        0.064900
      7 C7           1.3820     0.0010     2.3970 ca         1 T3        0.139100
      8 C8           2.6580     3.9530     4.6060 ca         1 T3        0.112100
      9 C9          -0.0050     0.0020     2.3950 ca         1 T3        0.035400
     10 C10          3.1320     2.9430     5.4290 ca         1 T3       -0.124000
     11 C11         -0.6930     0.0070     1.1970 ca         1 T3       -0.089000
     12 C12          2.9320     1.6200     5.0840 ca         1 T3       -0.112000
     13 C13         -0.7530    -0.0000    -1.3050 c3         1 T3       -0.042100
     14 C15         -1.0090    -1.4420    -1.7460 c3         1 T3       -0.013500
     15 C17         -1.7620    -1.4420    -3.0520 c          1 T3        0.864600
     16 I1           4.1690    -0.0010     1.1920 i          1 T3       -0.110400
     17 I2           1.2680     5.1630     2.1940 i          1 T3       -0.137900
     18 I3          -1.0570     0.0050     4.2070 i          1 T3       -0.110400
     19 N1           0.2740    -2.1360    -1.9200 nz         1 T3       -0.790600
     20 O1           2.8550     5.2540     4.9460 oh         1 T3       -0.509100
     21 O2           2.0600     0.0010     3.5730 os         1 T3       -0.203200
     22 O3          -3.1040    -1.4410    -3.0530 o          1 T3       -0.769800
     23 O4          -1.1570    -1.4430    -4.0970 o          1 T3       -0.769800
     24 HC3          1.9230    -0.0030    -0.9390 ha         1 T3        0.154000
     25 HC4          1.2600     2.0660     2.1740 ha         1 T3        0.157000
     26 HC10         3.6590     3.1900     6.3420 ha         1 T3        0.154000
     27 HC11        -1.7760     0.0070     1.1950 ha         1 T3        0.154000
     28 HC12         3.3000     0.8310     5.7280 ha         1 T3        0.154000
     29 H131        -1.7000     0.5110    -1.1750 hc         1 T3        0.097200
     30 H132        -0.1680     0.5100    -2.0600 hc         1 T3        0.097200
     31 HC15        -1.5960    -1.9520    -0.9920 hx         1 T3        0.107700
     32 HN11         0.1350    -2.9600    -2.4700 hn         1 T3        0.440800
     33 HN12         0.9200    -1.5300    -2.3850 hn         1 T3        0.440800
     34 HO1          2.1820     5.5280     5.5470 ho         1 T3        0.426000
     35 H13          0.6380    -2.3930    -1.0240 hn         1 T3        0.440800
@<TRIPOS>BOND
     1     1     3 ar
     2     1    11 ar
     3     1    13 1
     4     2     4 ar
     5     2    12 ar
     6     2    21 1
     7     3     5 ar
     8     3    24 1
     9     4     6 ar
    10     4    25 1
    11     5     7 ar
    12     5    16 1
    13     6     8 ar
    14     6    17 1
    15     7     9 ar
    16     7    21 1
    17     8    10 ar
    18     8    20 1
    19     9    11 ar
    20     9    18 1
    21    10    12 ar
    22    10    26 1
    23    11    27 1
    24    12    28 1
    25    13    14 1
    26    13    29 1
    27    13    30 1
    28    14    15 1
    29    14    19 1
    30    14    31 1
    31    15    22 1
    32    15    23 1
    33    19    32 1
    34    19    33 1
    35    20    34 1
    36    35    19 1
@<TRIPOS>SUBSTRUCTURE
     1 T3          1 TEMP              0 ****  ****    0 ROOT
