@<TRIPOS>MOLECULE
T30
   48    51     1     0     0
SMALL
bcc


@<TRIPOS>ATOM
      1 F21        -0.0120   -0.6930    0.1810 f         1 T30     -0.138900
      2 C18         1.3300   -0.5160    0.1180 ca        1 T30      0.127900
      3 C14         2.1340   -0.8380    1.2280 ca        1 T30     -0.168000
      4 C9          3.5100   -0.6550    1.1520 ca        1 T30     -0.095000
      5 C13         1.9160   -0.0110   -1.0560 ca        1 T30     -0.168000
      6 C8          3.2950    0.1670   -1.1120 ca        1 T30     -0.095000
      7 C3          4.1040   -0.1540   -0.0150 ca        1 T30     -0.070300
      8 C1          5.5730   -0.0010   -0.0690 cx        1 T30     -0.105000
      9 C4          6.3970   -1.2340   -0.4080 cx        1 T30     -0.103400
     10 C5          6.3180   -0.1070   -1.3840 cx        1 T30     -0.103400
     11 C2          6.1260    0.8850    0.9770 cc        1 T30      0.400800
     12 N6          6.1760    2.2930    0.9800 na        1 T30     -0.297700
     13 C11         5.5650    3.2680    0.0970 c3        1 T30      0.051000
     14 C16         5.9200    3.0770   -1.3770 c3        1 T30     -0.113600
     15 C17         4.0450    3.3490    0.2440 c3        1 T30     -0.113600
     16 N7          6.7250    0.4330    2.1310 nd        1 T30     -0.356000
     17 N12         7.1330    1.4480    2.8480 nd        1 T30     -0.331000
     18 C10         6.8250    2.6160    2.1950 cc        1 T30      0.391000
     19 C15         7.1350    3.9630    2.6660 ca        1 T30     -0.130500
     20 C19         6.6970    4.3580    3.9360 ca        1 T30     -0.078500
     21 C22         7.0020    5.6300    4.4190 ca        1 T30     -0.153500
     22 C20         7.9050    4.8350    1.8850 ca        1 T30     -0.078500
     23 C23         8.2240    6.1050    2.3540 ca        1 T30     -0.153500
     24 C24         7.7580    6.4940    3.6210 ca        1 T30      0.124100
     25 O25         8.0560    7.8100    3.9620 os        1 T30     -0.368900
     26 C26         8.1320    8.1780    5.3130 c3        1 T30      0.824700
     27 F29         8.8790    7.3260    6.0570 f         1 T30     -0.212633
     28 F27         8.7190    9.4000    5.3020 f         1 T30     -0.212633
     29 F28         6.8970    8.2850    5.8650 f         1 T30     -0.212633
     30 H14         1.6680   -1.2320    2.1430 ha        1 T30      0.151000
     31 H9          4.1440   -0.9070    2.0190 ha        1 T30      0.148000
     32 H13         1.2820    0.2380   -1.9190 ha        1 T30      0.151000
     33 H8          3.7470    0.5660   -2.0330 ha        1 T30      0.148000
     34 H4          7.3390   -1.4150    0.1410 hc        1 T30      0.083450
     35 H4A         5.8540   -2.1730   -0.6230 hc        1 T30      0.083450
     36 H5          7.2050    0.5350   -1.5380 hc        1 T30      0.083450
     37 H5A         5.7380   -0.2390   -2.3150 hc        1 T30      0.083450
     38 H11         5.9890    4.2730    0.4170 h1        1 T30      0.071700
     39 H16         5.5730    3.9770   -1.9400 hc        1 T30      0.052533
     40 H16A        5.4100    2.1750   -1.7950 hc        1 T30      0.052533
     41 H16B        7.0210    2.9680   -1.5200 hc        1 T30      0.052533
     42 H17         3.5600    2.3910   -0.0650 hc        1 T30      0.052533
     43 H17A        3.7560    3.5740    1.2980 hc        1 T30      0.052533
     44 H17B        3.6700    4.1710   -0.4130 hc        1 T30      0.052533
     45 H19         6.1160    3.6610    4.5600 ha        1 T30      0.153000
     46 H22         6.6620    5.9420    5.4180 ha        1 T30      0.157500
     47 H20         8.2780    4.5110    0.9000 ha        1 T30      0.153000
     48 H23         8.8270    6.8020    1.7550 ha        1 T30      0.157500
@<TRIPOS>BOND
     1    1    2 1   
     2    2    3 ar  
     3    2    5 ar  
     4    3    4 ar  
     5    3   30 1   
     6    4    7 ar  
     7    4   31 1   
     8    5    6 ar  
     9    5   32 1   
    10    6    7 ar  
    11    6   33 1   
    12    7    8 1   
    13    8    9 1   
    14    8   10 1   
    15    8   11 1   
    16    9   10 1   
    17    9   34 1   
    18    9   35 1   
    19   10   36 1   
    20   10   37 1   
    21   11   12 1   
    22   11   16 2   
    23   12   13 1   
    24   12   18 1   
    25   13   14 1   
    26   13   15 1   
    27   13   38 1   
    28   14   39 1   
    29   14   40 1   
    30   14   41 1   
    31   15   42 1   
    32   15   43 1   
    33   15   44 1   
    34   16   17 1   
    35   17   18 2   
    36   18   19 1   
    37   19   20 ar  
    38   19   22 ar  
    39   20   21 ar  
    40   20   45 1   
    41   21   24 ar  
    42   21   46 1   
    43   22   23 ar  
    44   22   47 1   
    45   23   24 ar  
    46   23   48 1   
    47   24   25 1   
    48   25   26 1   
    49   26   27 1   
    50   26   28 1   
    51   26   29 1   
@<TRIPOS>SUBSTRUCTURE
     1 T30         1 TEMP              0 ****  ****    0 ROOT
