@<TRIPOS>MOLECULE
molecule
   48    51     1     0     0
SMALL
bcc


@<TRIPOS>ATOM
      1 F21          0.0000     0.0000     0.0000 f          1 T30      -0.138900
      2 C18          1.3510     0.0000     0.0000 ca         1 T30       0.132900
      3 C14          2.0440     0.0000     1.1990 ca         1 T30      -0.166500
      4 C9           3.4250    -0.0010     1.1980 ca         1 T30      -0.100000
      5 C13          2.0440    -0.0060    -1.1980 ca         1 T30      -0.166500
      6 C8           3.4260    -0.0060    -1.1970 ca         1 T30      -0.100000
      7 C3           4.1160    -0.0010     0.0010 ca         1 T30      -0.065300
      8 C1           5.6230    -0.0010     0.0010 cx         1 T30      -0.110000
      9 C4           6.3290    -1.3100    -0.3560 cx         1 T30      -0.108400
     10 C5           6.3300    -0.1460    -1.3480 cx         1 T30      -0.108400
     11 C2           6.2740     0.8810     1.0360 cc         1 T30       0.399800
     12 N6           6.2340     2.2410     1.0750 na         1 T30      -0.309700
     13 C11          5.5580     3.1330     0.1290 c3         1 T30       0.040000
     14 C16          6.0030     2.7980    -1.2960 c3         1 T30      -0.112100
     15 C17          4.0440     2.9480     0.2470 c3         1 T30      -0.112100
     16 N7           6.9730     0.4810     2.0630 nd         1 T30      -0.353000
     17 N12          7.3810     1.4940     2.7420 nd         1 T30      -0.344000
     18 C10          6.9550     2.6040     2.1810 cc         1 T30       0.410000
     19 C15          7.2060     3.9820     2.6550 ca         1 T30      -0.132500
     20 C19          7.2650     4.2510     4.0230 ca         1 T30      -0.073000
     21 C22          7.4990     5.5360     4.4610 ca         1 T30      -0.169500
     22 C20          7.3890     5.0160     1.7350 ca         1 T30      -0.073000
     23 C23          7.6230     6.2990     2.1810 ca         1 T30      -0.169500
     24 C24          7.6750     6.5640     3.5440 ca         1 T30       0.134100
     25 O25          7.9060     7.8300     3.9800 os         1 T30      -0.339900
     26 C26          7.9470     8.0310     5.3930 c3         1 T30       0.795700
     27 F29          8.9680     7.2510     5.9470 f          1 T30      -0.202967
     28 F27          8.1920     9.3820     5.6650 f          1 T30      -0.202967
     29 F28          6.7210     7.6590     5.9540 f          1 T30      -0.202967
     30 H14          1.5030    -0.0000     2.1380 ha         1 T30       0.148500
     31 H9           3.9680     0.0010     2.1360 ha         1 T30       0.147000
     32 H13          1.5030    -0.0100    -2.1370 ha         1 T30       0.148500
     33 H8           3.9680    -0.0080    -2.1350 ha         1 T30       0.147000
     34 H4           7.2680    -1.4900     0.1550 hc         1 T30       0.087450
     35 H4A          5.6780    -2.1390    -0.6080 hc         1 T30       0.087450
     36 H5           7.2700     0.3850    -1.4430 hc         1 T30       0.087450
     37 H5A          5.6800    -0.2630    -2.2070 hc         1 T30       0.087450
     38 H11          5.8140     4.1610     0.3560 h1         1 T30       0.079700
     39 H16          7.0220     2.4300    -1.2780 hc         1 T30       0.052367
     40 H16A         5.9530     3.6900    -1.9090 hc         1 T30       0.052367
     41 H16B         5.3520     2.0380    -1.7090 hc         1 T30       0.052367
     42 H17          3.5630     3.9180     0.2790 hc         1 T30       0.052367
     43 H17A         3.6800     2.3930    -0.6100 hc         1 T30       0.052367
     44 H17B         3.8160     2.4010     1.1540 hc         1 T30       0.052367
     45 H19          7.1290     3.4500     4.7400 ha         1 T30       0.152500
     46 H22          7.5430     5.7460     5.5230 ha         1 T30       0.154000
     47 H20          7.3490     4.8100     0.6720 ha         1 T30       0.152500
     48 H23          7.7620     7.1030     1.4680 ha         1 T30       0.154000
@<TRIPOS>BOND
     1     1     2 1
     2     2     5 ar
     3     2     3 ar
     4     3     4 ar
     5     3    30 1
     6     4     7 ar
     7     4    31 1
     8     5     6 ar
     9     5    32 1
    10     6     7 ar
    11     6    33 1
    12     7     8 1
    13    11     8 1
    14     8    10 1
    15     8     9 1
    16    10     9 1
    17     9    34 1
    18     9    35 1
    19    10    36 1
    20    10    37 1
    21    12    11 1
    22    11    16 2
    23    13    12 1
    24    12    18 1
    25    15    13 1
    26    14    13 1
    27    13    38 1
    28    14    39 1
    29    14    40 1
    30    14    41 1
    31    15    42 1
    32    15    43 1
    33    15    44 1
    34    17    16 1
    35    18    17 2
    36    19    18 1
    37    22    19 ar
    38    19    20 ar
    39    21    20 ar
    40    20    45 1
    41    24    21 ar
    42    21    46 1
    43    23    22 ar
    44    22    47 1
    45    23    24 ar
    46    23    48 1
    47    25    24 1
    48    26    25 1
    49    28    26 1
    50    26    27 1
    51    26    29 1
@<TRIPOS>SUBSTRUCTURE
     1 T30         1 TEMP              0 ****  ****    0 ROOT
