@<TRIPOS>MOLECULE
T33
   35    36     1     0     0
SMALL
bcc


@<TRIPOS>ATOM
      1 C1           0.0000     0.0000     0.0000 ca         1 T33      -0.180300
      2 C2           1.3820     0.0000     0.0000 ca         1 T33      -0.025000
      3 C3           2.0740     0.0000     1.1960 ca         1 T33       0.140900
      4 I3           4.1690     0.0070     1.1960 i          1 T33      -0.219900
      5 C4           1.3800    -0.0100     2.3980 ca         1 T33       0.154100
      6 O4           2.0570    -0.0170     3.5750 os         1 T33      -0.172200
      7 C5          -0.0070    -0.0160     2.3950 ca         1 T33      -0.200000
      8 C6          -0.6930    -0.0100     1.1960 ca         1 T33      -0.091000
      9 C7          -0.7520     0.0060    -1.3060 c3         1 T33       0.048900
     10 C8          -1.0120     1.4500    -1.7380 c3         1 T33      -0.200500
     11 N8          -1.8100     2.1320    -0.7110 nz         1 T33       0.080400
     12 C9          -1.7640     1.4550    -3.0440 c          1 T33       0.952600
     13 O9          -1.0920     1.4660    -4.2060 o          1 T33      -0.817300
     14 O10         -2.9720     1.4520    -3.0460 o          1 T33      -0.817300
     15 C1'          1.1300     0.1020     4.5620 ca         1 T33       0.067100
     16 C2'          0.6850     1.3570     4.9500 ca         1 T33      -0.094000
     17 C3'         -0.2610     1.4750     5.9500 ca         1 T33       0.152900
     18 I3'         -0.9380     3.3690     6.5320 i          1 T33      -0.240900
     19 C4'         -0.7570     0.3400     6.5730 ca         1 T33       0.146100
     20 O4'         -1.6830     0.4570     7.5620 oh         1 T33      -0.488100
     21 C5'         -0.3080    -0.9150     6.1890 ca         1 T33      -0.124000
     22 C6'          0.6330    -1.0340     5.1860 ca         1 T33      -0.092000
     23 H2           1.9230     0.0080    -0.9380 ha         1 T33       0.135000
     24 H5          -0.5520    -0.0240     3.3310 ha         1 T33       0.148000
     25 H6          -1.7770    -0.0130     1.1930 ha         1 T33       0.100000
     26 H71         -0.1630    -0.4970    -2.0630 hc         1 T33       0.057200
     27 H72         -1.6960    -0.5090    -1.1810 hc         1 T33       0.057200
     28 H8          -0.0670     1.9650    -1.8640 hx         1 T33       0.089700
     29 HN81        -1.2210     2.3790     0.0590 hn         1 T33       0.212133
     30 HN82        -2.2160     2.9610    -1.1000 hn         1 T33       0.212133
     31 H2'          1.1140     2.2450     4.5020 ha         1 T33       0.132000
     32 HO'4        -1.2510     0.4480     8.4000 ho         1 T33       0.412000
     33 H5'         -0.6960    -1.8010     6.6750 ha         1 T33       0.126000
     34 H6'          0.9840    -2.0140     4.8860 ha         1 T33       0.126000
     35 H83         -2.5410     1.5250    -0.3990 hn         1 T33       0.212133
@<TRIPOS>BOND
     1     1     2 ar  
     2     1     8 ar  
     3     1     9 1   
     4     2     3 ar  
     5     2    23 1   
     6     3     4 1   
     7     3     5 ar  
     8     5     6 1   
     9     5     7 ar  
    10     6    15 1   
    11     7     8 ar  
    12     7    24 1   
    13     8    25 1   
    14     9    10 1   
    15     9    26 1   
    16     9    27 1   
    17    10    11 1   
    18    10    12 1   
    19    10    28 1   
    20    11    29 1   
    21    11    30 1   
    22    11    35 1   
    23    12    13 1   
    24    12    14 1   
    25    15    16 ar  
    26    15    22 ar  
    27    16    17 ar  
    28    16    31 1   
    29    17    18 1   
    30    17    19 ar  
    31    19    20 1   
    32    19    21 ar  
    33    20    32 1   
    34    21    22 ar  
    35    21    33 1   
    36    22    34 1   
@<TRIPOS>SUBSTRUCTURE
     1 T33         1 TEMP              0 ****  ****    0 ROOT
