@<TRIPOS>MOLECULE
molecule
   35    36     1     0     0
SMALL
bcc


@<TRIPOS>ATOM
      1 O1           0.0000     0.0000     0.0000 oh         1 T34      -0.362100
      2 N2           1.4160     0.0000     0.0000 ns         1 T34      -0.471400
      3 C3           2.0900     0.0000     1.1680 c          1 T34       0.688700
      4 O4           1.4830    -0.0010     2.2200 o          1 T34      -0.577100
      5 C5           3.5680     0.0010     1.1670 ca         1 T34      -0.098600
      6 C6           4.2690     0.0020    -0.0410 ca         1 T34      -0.168000
      7 C7           5.6490     0.0030    -0.0380 ca         1 T34      -0.088000
      8 C8           6.3430     0.0020     1.1580 ca         1 T34      -0.141300
      9 C9           5.6550     0.0010     2.3660 ca         1 T34       0.198600
     10 C10          4.2680     0.0060     2.3740 ca         1 T34      -0.146000
     11 C11          7.8500     0.0030     1.1510 c3         1 T34      -0.044800
     12 N12          6.3600    -0.0000     3.5710 nu         1 T34      -0.822600
     13 C13          5.6350    -0.0020     4.8450 c3         1 T34       0.282100
     14 C14          6.6220    -0.0030     5.9840 ca         1 T34      -0.116300
     15 C15          7.0740     1.1940     6.5080 ca         1 T34      -0.111000
     16 C16          7.9780     1.1930     7.5530 ca         1 T34      -0.131000
     17 C17          8.4320    -0.0050     8.0740 ca         1 T34      -0.119000
     18 C18          7.9790    -1.2020     7.5500 ca         1 T34      -0.131000
     19 C19          7.0690    -1.2000     6.5090 ca         1 T34      -0.111000
     20 H1          -0.3140     0.0360    -0.8880 ho         1 T34       0.397000
     21 H2           1.9160    -0.0070    -0.8670 hn         1 T34       0.322500
     22 H3           3.7290     0.0030    -0.9800 ha         1 T34       0.117000
     23 H4           6.1910     0.0040    -0.9760 ha         1 T34       0.132000
     24 H5           3.7300     0.0050     3.3140 ha         1 T34       0.161000
     25 H6           8.2120     0.8870     1.6610 hc         1 T34       0.043033
     26 H7           8.2140    -0.8820     1.6600 hc         1 T34       0.043033
     27 H8           8.2070     0.0040     0.1280 hc         1 T34       0.043033
     28 H9           7.3610     0.0000     3.5650 hn         1 T34       0.445800
     29 H10          5.0130    -0.8870     4.9050 h1         1 T34       0.049700
     30 H11          5.0120     0.8820     4.9070 h1         1 T34       0.049700
     31 H12          6.7190     2.1320     6.1000 ha         1 T34       0.135000
     32 H13          8.3330     2.1310     7.9640 ha         1 T34       0.133000
     33 H14          9.1430    -0.0060     8.8920 ha         1 T34       0.131000
     34 H15          8.3320    -2.1410     7.9600 ha         1 T34       0.133000
     35 H16          6.7150    -2.1380     6.0990 ha         1 T34       0.135000
@<TRIPOS>BOND
     1    17    18 ar
     2    17    16 ar
     3    18    19 ar
     4    16    15 ar
     5    19    14 ar
     6    15    14 ar
     7    14    13 1
     8    13    12 1
     9     4     3 2
    10    12     9 1
    11    10     9 ar
    12    10     5 ar
    13     3     5 1
    14     3     2 1
    15     9     8 ar
    16     5     6 ar
    17     1     2 1
    18     8    11 1
    19     8     7 ar
    20     6     7 ar
    21     1    20 1
    22     2    21 1
    23     6    22 1
    24     7    23 1
    25    10    24 1
    26    11    25 1
    27    11    26 1
    28    11    27 1
    29    12    28 1
    30    13    29 1
    31    13    30 1
    32    15    31 1
    33    16    32 1
    34    17    33 1
    35    18    34 1
    36    19    35 1
@<TRIPOS>SUBSTRUCTURE
     1 T34         1 TEMP              0 ****  ****    0 ROOT
