@<TRIPOS>MOLECULE
molecule
   31    30     1     0     0
SMALL
bcc


@<TRIPOS>ATOM
      1 S1           0.0000     0.0000     0.0000 s6         1 T3A       1.250800
      2 O1           1.4210     0.0000     0.0000 o          1 T3A      -0.706867
      3 O2          -0.7550     0.0000     1.2040 o          1 T3A      -0.706867
      4 O3          -0.3380     1.3520    -0.6110 o          1 T3A      -0.706867
      5 C1          -0.6690    -1.1770    -1.2080 c3         1 T3A      -0.256600
      6 C2          -0.4030    -2.6060    -0.7280 c3         1 T3A      -0.056400
      7 C3          -0.9660    -3.5980    -1.7470 c3         1 T3A       0.141800
      8 N1          -0.7120    -4.9700    -1.2870 n7         1 T3A      -0.777200
      9 C4          -1.2750    -5.8690    -2.3030 c3         1 T3A       0.178200
     10 C5          -1.0430    -7.3220    -1.8860 c3         1 T3A       0.134400
     11 O5          -1.5910    -8.1950    -2.8750 oh         1 T3A      -0.609800
     12 C6          -0.5900    -5.6100    -3.6470 c3         1 T3A       0.134400
     13 O6           0.8130    -5.8510    -3.5220 oh         1 T3A      -0.609800
     14 C7          -2.7760    -5.6090    -2.4380 c3         1 T3A       0.134400
     15 O7          -3.3980    -5.7370    -1.1580 oh         1 T3A      -0.609800
     16 H11         -0.1880    -1.0230    -2.1670 h1         1 T3A       0.071700
     17 H12         -1.7360    -1.0230    -1.3100 h1         1 T3A       0.071700
     18 H21          0.6640    -2.7600    -0.6250 hc         1 T3A       0.049200
     19 H22         -0.8840    -2.7600     0.2300 hc         1 T3A       0.049200
     20 H31         -0.4850    -3.4440    -2.7060 h1         1 T3A       0.031700
     21 H32         -2.0340    -3.4440    -1.8500 h1         1 T3A       0.031700
     22 HN1         -1.1770    -5.1200    -0.4140 hn         1 T3A       0.363800
     23 H51          0.0210    -7.5050    -1.7920 h1         1 T3A       0.034533
     24 H52         -1.5260    -7.5060    -0.9340 h1         1 T3A       0.034533
     25 HO5         -1.4760    -9.0910    -2.6020 ho         1 T3A       0.397333
     26 H61         -0.7550    -4.5810    -3.9430 h1         1 T3A       0.034533
     27 H62         -1.0050    -6.2720    -4.3970 h1         1 T3A       0.034533
     28 HO6          1.2160    -5.8080    -4.3730 ho         1 T3A       0.397333
     29 H71         -2.9370    -4.6080    -2.8190 h1         1 T3A       0.034533
     30 H72         -3.2080    -6.3300    -3.1230 h1         1 T3A       0.034533
     31 HO7         -4.3350    -5.7610    -1.2640 ho         1 T3A       0.397333
@<TRIPOS>BOND
     1     1     2 1
     2     1     3 1
     3     1     4 1
     4     1     5 1
     5     5     6 1
     6     5    16 1
     7     5    17 1
     8     6     7 1
     9     6    18 1
    10     6    19 1
    11     7     8 1
    12     7    20 1
    13     7    21 1
    14     8     9 1
    15     8    22 1
    16     9    10 1
    17     9    12 1
    18     9    14 1
    19    10    11 1
    20    10    23 1
    21    10    24 1
    22    11    25 1
    23    12    13 1
    24    12    26 1
    25    12    27 1
    26    13    28 1
    27    14    15 1
    28    14    29 1
    29    14    30 1
    30    15    31 1
@<TRIPOS>SUBSTRUCTURE
     1 T3A         1 TEMP              0 ****  ****    0 ROOT
