@<TRIPOS>MOLECULE
molecule
   54    57     1     0     0
SMALL
bcc


@<TRIPOS>ATOM
      1 C01          0.0000     0.0000     0.0000 c3         1 T3C       0.216100
      2 N02          1.4640     0.0000     0.0000 nu         1 T3C      -0.928900
      3 C03          2.1550     0.0000     1.1960 cc         1 T3C       0.734300
      4 N04          1.6030    -0.0000     2.3730 nd         1 T3C      -0.800000
      5 C05          2.4050    -0.0000     3.4110 cd         1 T3C       0.491600
      6 C06          1.9040    -0.0000     4.8330 c3         1 T3C      -0.168400
      7 C07          3.7210     0.0000     3.0970 cc         1 T3C      -0.334900
      8 C08          4.8380     0.0000     4.0520 ca         1 T3C       0.660800
      9 N09          4.6100    -0.0000     5.3650 nb         1 T3C      -0.787000
     10 C10          5.6160    -0.0010     6.2260 ca         1 T3C       0.936900
     11 N11          5.3370    -0.0020     7.5800 nu         1 T3C      -0.685300
     12 C12          6.3760    -0.1190     8.5080 ca         1 T3C       0.175600
     13 C13          6.2940     0.5360     9.7300 ca         1 T3C      -0.203000
     14 C14          7.3210     0.4210    10.6470 ca         1 T3C      -0.067000
     15 C15          8.4310    -0.3450    10.3530 ca         1 T3C      -0.191000
     16 C16          8.5200    -1.0020     9.1320 ca         1 T3C       0.078600
     17 N17          9.6440    -1.7770     8.8350 nh         1 T3C      -0.587000
     18 C18         10.5600    -1.7600     9.8940 c3         1 T3C       0.134800
     19 C19         11.8910    -2.4420     9.5040 c3         1 T3C      -0.325400
     20 C20         11.6950    -3.9360     9.5100 c3         1 T3C      -0.049200
     21 N21         11.3160    -4.4750     8.1840 n7         1 T3C      -1.004200
     22 C22         10.3290    -3.6440     7.4640 c3         1 T3C       0.026800
     23 C23          9.2520    -3.1280     8.3830 c3         1 T3C      -0.045200
     24 C24          7.4880    -0.8940     8.2110 ca         1 T3C      -0.162000
     25 N25          6.8830    -0.0010     5.8310 nb         1 T3C      -0.773000
     26 C26          7.2020    -0.0010     4.5490 ca         1 T3C       0.539200
     27 C27          6.1800    -0.0060     3.5940 ca         1 T3C      -0.353600
     28 C28          6.4810    -0.0110     2.1940 cg         1 T3C       0.252800
     29 N29          6.7000    -0.0170     1.0790 n1         1 T3C      -0.357800
     30 S30          3.8590    -0.0060     1.3400 ss         1 T3C      -0.189300
     31 H011        -0.0890     0.6570     0.8570 h1         1 T3C       0.070367
     32 H012        -0.0290     0.4720    -0.9750 h1         1 T3C       0.070367
     33 H013        -0.0580    -1.0780     0.0930 h1         1 T3C       0.070367
     34 H02          1.9040    -0.1020    -0.8930 hn         1 T3C       0.447800
     35 H061         0.9920     0.5840     4.8200 hc         1 T3C       0.088033
     36 H062         1.9080    -1.0820     4.8930 hc         1 T3C       0.088033
     37 H063         2.8160     0.1660     5.3930 hc         1 T3C       0.088033
     38 H11          4.6760     0.6880     7.8780 hn         1 T3C       0.434800
     39 H13          5.7290     1.4600     9.6960 ha         1 T3C       0.132000
     40 H24          7.9990    -1.5710     7.5370 ha         1 T3C       0.181000
     41 H14          7.1580     1.0190    11.5360 ha         1 T3C       0.136000
     42 H15          9.1370    -0.8610    10.9920 ha         1 T3C       0.144000
     43 H181        11.1700    -0.9020    10.1490 h1         1 T3C       0.085700
     44 H182        10.2110    -2.5310    10.5700 h1         1 T3C       0.085700
     45 H231         9.8700    -4.0060     8.5250 h1         1 T3C       0.118700
     46 H232         8.2160    -3.2860     8.6580 h1         1 T3C       0.118700
     47 H191        12.0540    -3.0980     8.6570 hc         1 T3C       0.170200
     48 H192        12.1640    -2.7770    10.4960 hc         1 T3C       0.170200
     49 H201        12.5650    -4.2960     8.9750 h1         1 T3C       0.158200
     50 H202        10.6200    -4.0570     9.4460 h1         1 T3C       0.158200
     51 H21         10.3350    -4.3030     8.0900 hn         1 T3C       0.444800
     52 H221        10.4230    -3.7210     6.3870 h1         1 T3C       0.129200
     53 H222        10.6780    -2.6590     7.7480 h1         1 T3C       0.129200
     54 H26          8.1250     0.0200     3.9820 h4         1 T3C       0.047100
@<TRIPOS>BOND
     1     1     2 1
     2     2     3 1
     3     3     4 2
     4     3    30 1
     5     4     5 1
     6     5     6 1
     7     5     7 2
     8     7     8 1
     9     7    30 1
    10     8     9 ar
    11     8    27 ar
    12     9    10 ar
    13    10    11 1
    14    10    25 ar
    15    11    12 1
    16    12    13 ar
    17    12    24 ar
    18    13    14 ar
    19    14    15 ar
    20    15    16 ar
    21    16    17 1
    22    16    24 ar
    23    17    18 1
    24    17    23 1
    25    18    19 1
    26    19    20 1
    27    20    21 1
    28    21    22 1
    29    22    23 1
    30    25    26 ar
    31    26    27 ar
    32    27    28 1
    33    28    29 3
    34     1    31 1
    35     1    32 1
    36     1    33 1
    37     2    34 1
    38     6    35 1
    39     6    36 1
    40     6    37 1
    41    11    38 1
    42    13    39 1
    43    24    40 1
    44    14    41 1
    45    15    42 1
    46    18    43 1
    47    18    44 1
    48    23    45 1
    49    23    46 1
    50    19    47 1
    51    19    48 1
    52    20    49 1
    53    20    50 1
    54    21    51 1
    55    22    52 1
    56    22    53 1
    57    26    54 1
@<TRIPOS>SUBSTRUCTURE
     1 T3C         1 TEMP              0 ****  ****    0 ROOT
