@<TRIPOS>MOLECULE
T3C
   54    60     1     0     0
SMALL
bcc


@<TRIPOS>ATOM
      1 C01          0.0000     0.0000     0.0000 c3         1 T3C      -0.086000
      2 N02          1.4640     0.0000     0.0000 nu         1 T3C       0.040000
      3 C03          2.1550     0.0000     1.1960 c2         1 T3C      -0.173000
      4 N04          1.6030    -0.0000     2.3730 n2         1 T3C      -0.171000
      5 C05          2.4050    -0.0000     3.4110 c2         1 T3C       0.038000
      6 C06          1.9040    -0.0000     4.8330 c3         1 T3C      -0.137000
      7 C07          3.7210     0.0000     3.0970 c2         1 T3C      -0.408000
      8 C08          4.8380     0.0000     4.0520 c2         1 T3C       0.188000
      9 N09          4.6100    -0.0000     5.3650 n2         1 T3C      -0.138000
     10 C10          5.6160    -0.0010     6.2260 c2         1 T3C      -0.006000
     11 N11          5.3370    -0.0020     7.5800 nu         1 T3C       0.195000
     12 C12          6.3760    -0.1190     8.5080 ca         1 T3C      -0.032000
     13 C13          6.2940     0.5360     9.7300 ca         1 T3C      -0.177000
     14 C14          7.3210     0.4210    10.6470 ca         1 T3C      -0.027000
     15 C15          8.4310    -0.3450    10.3530 ca         1 T3C      -0.171000
     16 C16          8.5200    -1.0020     9.1320 ca         1 T3C      -0.115000
     17 N17          9.6440    -1.7770     8.8350 nh         1 T3C       0.104000
     18 C18         10.5600    -1.7600     9.8940 c3         1 T3C      -0.149000
     19 C19         11.8910    -2.4420     9.5040 c3         1 T3C      -0.384000
     20 C20         11.6950    -3.9360     9.5100 DU         1 T3C      -0.273000
     21 N21         11.3160    -4.4750     8.1840 n7         1 T3C      -0.485000
     22 C22         10.3290    -3.6440     7.4640 DU         1 T3C      -0.157000
     23 C23          9.2520    -3.1280     8.3830 c3         1 T3C      -0.305000
     24 C24          7.4880    -0.8940     8.2110 ca         1 T3C      -0.150000
     25 N25          6.8830    -0.0010     5.8310 n2         1 T3C      -0.133000
     26 C26          7.2020    -0.0010     4.5490 c2         1 T3C       0.052000
     27 C27          6.1800    -0.0060     3.5940 c2         1 T3C      -0.168000
     28 C28          6.4810    -0.0110     2.1940 c1         1 T3C      -0.083000
     29 N29          6.7000    -0.0170     1.0790 n1         1 T3C      -0.039000
     30 S30          3.8590    -0.0060     1.3400 ss         1 T3C       0.287000
     31 H011        -0.0890     0.6570     0.8570 h1         1 T3C       0.075667
     32 H012        -0.0290     0.4720    -0.9750 h1         1 T3C       0.075667
     33 H013        -0.0580    -1.0780     0.0930 h1         1 T3C       0.075667
     34 H02          1.9040    -0.1020    -0.8930 hn         1 T3C       0.099000
     35 H061         0.9920     0.5840     4.8200 hc         1 T3C       0.094667
     36 H062         1.9080    -1.0820     4.8930 hc         1 T3C       0.094667
     37 H063         2.8160     0.1660     5.3930 hc         1 T3C       0.094667
     38 H11          4.6760     0.6880     7.8780 hn         1 T3C       0.073000
     39 H13          5.7290     1.4600     9.6960 ha         1 T3C       0.112000
     40 H24          7.9990    -1.5710     7.5370 ha         1 T3C       0.164000
     41 H14          7.1580     1.0190    11.5360 ha         1 T3C       0.104000
     42 H15          9.1370    -0.8610    10.9920 ha         1 T3C       0.130000
     43 H181        11.1700    -0.9020    10.1490 h1         1 T3C       0.108500
     44 H182        10.2110    -2.5310    10.5700 h1         1 T3C       0.108500
     45 H231         9.8700    -4.0060     8.5250 DU         1 T3C       0.113000
     46 H232         8.2160    -3.2860     8.6580 h1         1 T3C       0.149000
     47 H191        12.0540    -3.0980     8.6570 DU         1 T3C       0.253000
     48 H192        12.1640    -2.7770    10.4960 hc         1 T3C       0.150000
     49 H201        12.5650    -4.2960     8.9750 ha         1 T3C       0.180500
     50 H202        10.6200    -4.0570     9.4460 ha         1 T3C       0.180500
     51 H21         10.3350    -4.3030     8.0900 DU         1 T3C       0.230000
     52 H221        10.4230    -3.7210     6.3870 ha         1 T3C       0.130500
     53 H222        10.6780    -2.6590     7.7480 ha         1 T3C       0.130500
     54 H26          8.1250     0.0200     3.9820 h4         1 T3C       0.135000
@<TRIPOS>BOND
     1     1     2 1   
     2     1    31 1   
     3     1    32 1   
     4     1    33 1   
     5     2     3 1   
     6     2    34 1   
     7     3     4 1   
     8     3    30 1   
     9     4     5 1   
    10     5     6 1   
    11     5     7 1   
    12     6    35 1   
    13     6    36 1   
    14     6    37 1   
    15     7     8 1   
    16     7    30 1   
    17     8     9 1   
    18     8    27 1   
    19     9    10 1   
    20    10    11 1   
    21    10    25 1   
    22    11    12 1   
    23    11    38 1   
    24    12    13 1   
    25    12    24 1   
    26    13    14 1   
    27    13    39 1   
    28    14    15 1   
    29    14    41 1   
    30    15    16 1   
    31    15    42 1   
    32    16    17 1   
    33    16    24 1   
    34    17    18 1   
    35    17    23 1   
    36    18    19 1   
    37    18    43 1   
    38    18    44 1   
    39    19    20 1   
    40    19    47 1   
    41    19    48 1   
    42    20    21 1   
    43    20    47 1   
    44    20    49 1   
    45    20    50 1   
    46    21    22 1   
    47    21    51 1   
    48    22    23 1   
    49    22    45 1   
    50    22    51 1   
    51    22    52 1   
    52    22    53 1   
    53    23    45 1   
    54    23    46 1   
    55    24    40 1   
    56    25    26 1   
    57    26    27 1   
    58    26    54 1   
    59    27    28 1   
    60    28    29 1   
@<TRIPOS>SUBSTRUCTURE
     1 T3C         1 TEMP              0 ****  ****    0 ROOT
