@<TRIPOS>MOLECULE
molecule
   43    45     1     0     0
SMALL
bcc


@<TRIPOS>ATOM
      1 C7A          0.0000     0.0000     0.0000 c3         1 T3E       0.226100
      2 N6A          1.4650     0.0000     0.0000 nu         1 T3E      -0.874900
      3 C3A          2.1560     0.0000     1.1960 cc         1 T3E       0.745300
      4 N2A          1.6020    -0.0020     2.3740 nd         1 T3E      -0.787000
      5 C1A          2.4050    -0.0030     3.4120 cd         1 T3E       0.519600
      6 C8A          1.9040    -0.0050     4.8320 c3         1 T3E      -0.118400
      7 C5A          3.7220    -0.0030     3.0970 cc         1 T3E      -0.342900
      8 C4           4.8390    -0.0050     4.0520 ca         1 T3E       0.678800
      9 N3           4.6100    -0.0060     5.3660 nb         1 T3E      -0.794000
     10 C2           5.6150    -0.0080     6.2260 ca         1 T3E       0.945900
     11 N7           5.3370    -0.0100     7.5800 nu         1 T3E      -0.753300
     12 C1B          6.3760    -0.1290     8.5070 ca         1 T3E       0.173600
     13 C2B          6.2950     0.5240     9.7310 ca         1 T3E      -0.085000
     14 C3B          7.3230     0.4040    10.6450 ca         1 T3E      -0.318500
     15 S7B          7.2210     1.2320    12.1970 sy         1 T3E       1.224200
     16 O8B          6.3250     2.3200    12.0140 o          1 T3E      -0.518800
     17 N9B          6.4860     0.1950    13.2580 nz         1 T3E      -0.806500
     18 O1B          8.5560     1.3930    12.6550 o          1 T3E      -0.518800
     19 C4B          8.4320    -0.3640    10.3440 ca         1 T3E      -0.051000
     20 C5B          8.5160    -1.0150     9.1260 ca         1 T3E      -0.114000
     21 C6B          7.4890    -0.9040     8.2100 ca         1 T3E      -0.033000
     22 N1           6.8830    -0.0090     5.8310 nb         1 T3E      -0.830000
     23 C6           7.2020    -0.0070     4.5500 ca         1 T3E       0.544200
     24 C5           6.1800    -0.0100     3.5940 ca         1 T3E      -0.315600
     25 C8           6.4800    -0.0140     2.1940 cg         1 T3E       0.240800
     26 N9           6.7010    -0.0100     1.0800 n1         1 T3E      -0.328800
     27 S4A          3.8590    -0.0080     1.3410 ss         1 T3E      -0.167300
     28 H7A1        -0.3610    -0.0150    -1.0210 h1         1 T3E       0.050367
     29 H7A2        -0.3610     0.8920     0.4980 h1         1 T3E       0.050367
     30 H7A3        -0.3610    -0.8770     0.5230 h1         1 T3E       0.050367
     31 H6A          1.9660     0.0170    -0.8670 hn         1 T3E       0.460800
     32 H8A1         2.1910    -0.9320     5.3150 hc         1 T3E       0.058367
     33 H8A2         2.3370     0.8300     5.3690 hc         1 T3E       0.058367
     34 H8A3         0.8250     0.0840     4.8350 hc         1 T3E       0.058367
     35 H7           4.3960    -0.1390     7.8970 hn         1 T3E       0.472800
     36 H2B          5.4790     1.2100     9.9260 ha         1 T3E       0.163000
     37 H6B          7.5580    -1.4060     7.2520 ha         1 T3E       0.191000
     38 H4B          9.2490    -0.4350    11.0510 ha         1 T3E       0.155000
     39 H9B1         5.5730    -0.0370    12.9200 hn         1 T3E       0.491133
     40 H9B2         7.0320    -0.6400    13.3410 hn         1 T3E       0.491133
     41 H5B          9.3790    -1.6290     8.8990 ha         1 T3E       0.167000
     42 H6           8.2420     0.0310     4.2510 h4         1 T3E       0.048100
     43 H9B3         6.3570     0.6530    14.1380 hn         1 T3E       0.491133
@<TRIPOS>BOND
     1     1     2 1
     2     2     3 1
     3     3     4 2
     4     3    27 1
     5     4     5 1
     6     5     6 1
     7     5     7 2
     8     7     8 1
     9     7    27 1
    10     8     9 ar
    11     8    24 ar
    12     9    10 ar
    13    10    11 1
    14    10    22 ar
    15    11    12 1
    16    12    13 ar
    17    12    21 ar
    18    13    14 ar
    19    14    15 1
    20    14    19 ar
    21    15    16 2
    22    15    17 1
    23    15    18 2
    24    19    20 ar
    25    20    21 ar
    26    22    23 ar
    27    23    24 ar
    28    24    25 1
    29    25    26 3
    30     1    28 1
    31     1    29 1
    32     1    30 1
    33     2    31 1
    34     6    32 1
    35     6    33 1
    36     6    34 1
    37    11    35 1
    38    13    36 1
    39    21    37 1
    40    19    38 1
    41    17    39 1
    42    17    40 1
    43    20    41 1
    44    23    42 1
    45    43    17 1
@<TRIPOS>SUBSTRUCTURE
     1 T3E         1 TEMP              0 ****  ****    0 ROOT
