@<TRIPOS>MOLECULE
molecule
   46    48     1     0     0
SMALL
bcc


@<TRIPOS>ATOM
      1 O26          0.0000     0.0000     0.0000 o          1 T3M      -0.832300
      2 C24          1.3470     0.0000     0.0000 c          1 T3M       0.878200
      3 O25          1.9540     0.0000     1.0520 o          1 T3M      -0.832300
      4 C23          2.0850    -0.0010    -1.2780 ca         1 T3M      -0.082600
      5 C22          3.4830    -0.0010    -1.2790 ca         1 T3M      -0.111000
      6 C21          4.1690    -0.0020    -2.4710 ca         1 T3M      -0.131500
      7 C27          1.3860    -0.0070    -2.4890 ca         1 T3M      -0.111000
      8 C28          2.0750    -0.0080    -3.6800 ca         1 T3M      -0.131500
      9 C20          3.4710    -0.0040    -3.6790 cp         1 T3M      -0.193500
     10 C19          4.2120    -0.0040    -4.9620 cp         1 T3M       0.354500
     11 N14          5.2590    -0.8040    -5.1270 nb         1 T3M      -0.625000
     12 C17          3.8050     0.8380    -6.0110 ca         1 T3M       0.581900
     13 N18          2.7100     1.6710    -5.8470 nv         1 T3M      -1.018500
     14 N16          4.4710     0.8340    -7.1580 nb         1 T3M      -0.727000
     15 C15          5.5160     0.0400    -7.3160 ca         1 T3M       0.329900
     16 C13          5.9200    -0.8010    -6.2790 cp         1 T3M       0.295500
     17 C12          7.0890    -1.6940    -6.4630 cp         1 T3M      -0.049500
     18 C4           7.8480    -1.6180    -7.6310 ca         1 T3M      -0.233500
     19 C11          7.4360    -2.6050    -5.4670 ca         1 T3M      -0.233500
     20 C8           8.5270    -3.4370    -5.6410 ca         1 T3M       0.150600
     21 O9           8.8650    -4.3270    -4.6690 os         1 T3M      -0.319400
     22 C10          8.0500    -4.3470    -3.4960 c3         1 T3M       0.125700
     23 C5           9.2790    -3.3660    -6.8090 ca         1 T3M       0.039100
     24 O6          10.3520    -4.1850    -6.9780 os         1 T3M      -0.325900
     25 C7          10.1100    -5.4500    -7.5980 c3         1 T3M       0.135700
     26 C3           8.9380    -2.4520    -7.8020 ca         1 T3M       0.150600
     27 O2           9.6790    -2.3790    -8.9410 os         1 T3M      -0.319400
     28 C1           9.2720    -1.4190    -9.9180 c3         1 T3M       0.125700
     29 H22          4.0260    -0.0000    -0.3410 ha         1 T3M       0.154500
     30 H27          0.3030    -0.0110    -2.4900 ha         1 T3M       0.154500
     31 H21          5.2530    -0.0000    -2.4720 ha         1 T3M       0.118000
     32 H28          1.5340    -0.0120    -4.6180 ha         1 T3M       0.118000
     33 H181         2.0840     1.8310    -6.6110 hn         1 T3M       0.445800
     34 H182         2.5490     2.1190    -4.9670 hn         1 T3M       0.445800
     35 H15          6.0640     0.0480    -8.2500 h4         1 T3M       0.018100
     36 H4           7.5830    -0.9070    -8.4040 ha         1 T3M       0.154000
     37 H11          6.8240    -2.6930    -4.5770 ha         1 T3M       0.154000
     38 H101         8.0810    -3.3760    -3.0170 h1         1 T3M       0.042867
     39 H102         8.4230    -5.0990    -2.8100 h1         1 T3M       0.042867
     40 H103         7.0290    -4.5830    -3.7690 h1         1 T3M       0.042867
     41 H71C        10.3960    -6.2450    -6.9190 h1         1 T3M       0.030033
     42 H72C         9.0580    -5.5400    -7.8370 h1         1 T3M       0.030033
     43 H73C        10.6950    -5.5240    -8.5070 h1         1 T3M       0.030033
     44 H11C         9.3090    -0.4260    -9.4860 h1         1 T3M       0.042867
     45 H12C         8.2600    -1.6360   -10.2380 h1         1 T3M       0.042867
     46 H13C         9.9380    -1.4670   -10.7710 h1         1 T3M       0.042867
@<TRIPOS>BOND
     1     1     2 1
     2     2     3 1
     3     2     4 1
     4     4     5 ar
     5     4     7 ar
     6     5     6 ar
     7     6     9 ar
     8     7     8 ar
     9     8     9 ar
    10     9    10 1
    11    10    11 ar
    12    10    12 ar
    13    11    16 ar
    14    12    13 1
    15    12    14 ar
    16    14    15 ar
    17    15    16 ar
    18    16    17 1
    19    17    18 ar
    20    17    19 ar
    21    18    26 ar
    22    19    20 ar
    23    20    21 1
    24    20    23 ar
    25    21    22 1
    26    23    24 1
    27    23    26 ar
    28    24    25 1
    29    26    27 1
    30    27    28 1
    31     5    29 1
    32     7    30 1
    33     6    31 1
    34     8    32 1
    35    13    33 1
    36    13    34 1
    37    15    35 1
    38    18    36 1
    39    19    37 1
    40    22    38 1
    41    22    39 1
    42    22    40 1
    43    25    41 1
    44    25    42 1
    45    25    43 1
    46    28    44 1
    47    28    45 1
    48    28    46 1
@<TRIPOS>SUBSTRUCTURE
     1 T3M         1 TEMP              0 ****  ****    0 ROOT
