@<TRIPOS>MOLECULE
T3O
   41    43     1     0     0
SMALL
bcc


@<TRIPOS>ATOM
      1 CAN         0.0890    0.1170    0.1200 c3        1 T3O     -0.075400
      2 CAD         1.6030   -0.0310    0.0770 c3        1 T3O     -0.046500
      3 CAI         2.1450   -0.0370    1.4770 c2        1 T3O     -0.120400
      4 CAL         3.5330    0.4470    1.6460 c3        1 T3O     -0.054900
      5 CAO         1.3910   -0.4630    2.5020 c2        1 T3O     -0.155200
      6 CAM        -0.0090   -0.9310    2.3570 c3        1 T3O     -0.040200
      7 CAP        -0.4730   -1.0590    0.9090 c3        1 T3O     -0.076700
      8 CAK        -0.0810   -2.3810    0.2200 c3        1 T3O      0.160800
      9 CAF        -0.3580   -3.5900    1.1170 c3        1 T3O     -0.103100
     10 CAQ        -0.8810   -2.5480   -1.0710 c3        1 T3O     -0.103100
     11 OAR         1.3250   -2.4740   -0.0550 os        1 T3O     -0.410600
     12 CAB         1.9740   -1.3420   -0.6300 c3        1 T3O      0.202400
     13 CAA         1.8280   -1.3270   -2.1270 ca        1 T3O     -0.141300
     14 CAC         2.0710   -2.5330   -2.8080 ca        1 T3O     -0.084000
     15 CAH         2.0220   -2.6010   -4.1930 ca        1 T3O     -0.189000
     16 CAJ         1.7240   -1.4360   -4.9210 ca        1 T3O      0.125100
     17 OAS         1.6920   -1.5570   -6.2920 oh        1 T3O     -0.498100
     18 CAG         1.4760   -0.2270   -4.2610 ca        1 T3O     -0.189000
     19 CAE         1.5280   -0.1830   -2.8680 ca        1 T3O     -0.084000
     20 HAN1       -0.3290    0.1370   -0.9180 hc        1 T3O      0.049200
     21 HAN2       -0.1890    1.0790    0.6210 hc        1 T3O      0.049200
     22 HAD         2.0630    0.8290   -0.4820 hc        1 T3O      0.061700
     23 HAL1        4.2270   -0.1290    0.9830 hc        1 T3O      0.040700
     24 HAL2        3.6000    1.5280    1.3650 hc        1 T3O      0.040700
     25 HAL3        3.8800    0.3350    2.7020 hc        1 T3O      0.040700
     26 HAO         1.7830   -0.4730    3.5310 ha        1 T3O      0.122000
     27 HAM1       -0.6780   -0.1870    2.8740 hc        1 T3O      0.050700
     28 HAM2       -0.1330   -1.9060    2.8980 hc        1 T3O      0.050700
     29 HAP        -1.5970   -1.0100    0.9000 hc        1 T3O      0.053700
     30 HAF1       -0.3500   -4.5250    0.5070 hc        1 T3O      0.044033
     31 HAF2       -1.3570   -3.4760    1.5990 hc        1 T3O      0.044033
     32 HAF3        0.4310   -3.6840    1.9010 hc        1 T3O      0.044033
     33 HAQ1       -0.6980   -1.6970   -1.7680 hc        1 T3O      0.044033
     34 HAQ2       -0.5670   -3.4880   -1.5860 hc        1 T3O      0.044033
     35 HAQ3       -1.9690   -2.6070   -0.8380 hc        1 T3O      0.044033
     36 HAB         3.0650   -1.5670   -0.4090 h1        1 T3O      0.076700
     37 HAC         2.2950   -3.4380   -2.2200 ha        1 T3O      0.141500
     38 HAH         2.2110   -3.5420   -4.7280 ha        1 T3O      0.141500
     39 HOAS        1.4810   -0.6880   -6.6620 ho        1 T3O      0.418000
     40 HAG         1.2410    0.6810   -4.8340 ha        1 T3O      0.141500
     41 HAE         1.3230    0.7760   -2.3680 ha        1 T3O      0.141500
@<TRIPOS>BOND
     1    1    2 1   
     2    1    7 1   
     3    1   20 1   
     4    1   21 1   
     5    2    3 1   
     6    2   12 1   
     7    2   22 1   
     8    3    4 1   
     9    3    5 2   
    10    4   23 1   
    11    4   24 1   
    12    4   25 1   
    13    5    6 1   
    14    5   26 1   
    15    6    7 1   
    16    6   27 1   
    17    6   28 1   
    18    7    8 1   
    19    7   29 1   
    20    8    9 1   
    21    8   10 1   
    22    8   11 1   
    23    9   30 1   
    24    9   31 1   
    25    9   32 1   
    26   10   33 1   
    27   10   34 1   
    28   10   35 1   
    29   11   12 1   
    30   12   13 1   
    31   12   36 1   
    32   13   14 ar  
    33   13   19 ar  
    34   14   15 ar  
    35   14   37 1   
    36   15   16 ar  
    37   15   38 1   
    38   16   17 1   
    39   16   18 ar  
    40   17   39 1   
    41   18   19 ar  
    42   18   40 1   
    43   19   41 1   
@<TRIPOS>SUBSTRUCTURE
     1 T3O         1 TEMP              0 ****  ****    0 ROOT
