@<TRIPOS>MOLECULE
molecule
   41    43     1     0     0
SMALL
bcc


@<TRIPOS>ATOM
      1 CAN          0.0000     0.0000     0.0000 c3         1 T3O      -0.074400
      2 CAD          1.5320     0.0000     0.0000 c3         1 T3O      -0.053500
      3 CAI          2.0260     0.0000     1.4260 c2         1 T3O      -0.124400
      4 CAL          3.4110     0.5190     1.7130 c3         1 T3O      -0.053900
      5 CAO          1.3140    -0.4380     2.4140 c2         1 T3O      -0.160200
      6 CAM         -0.0850    -0.9620     2.2800 c3         1 T3O      -0.036200
      7 CAP         -0.4480    -1.2160     0.8260 c3         1 T3O      -0.087700
      8 CAK          0.1320    -2.4880     0.2410 c3         1 T3O       0.159800
      9 CAF         -0.0920    -3.6470     1.2360 c3         1 T3O      -0.103100
     10 CAQ         -0.6850    -2.8570    -1.0120 c3         1 T3O      -0.103100
     11 OAR          1.4980    -2.4470    -0.0660 os         1 T3O      -0.390600
     12 CAB          2.0270    -1.2930    -0.6560 c3         1 T3O       0.207400
     13 CAA          1.8330    -1.2400    -2.1490 ca         1 T3O      -0.124300
     14 CAC          1.5330    -2.3960    -2.8470 ca         1 T3O      -0.108000
     15 CAH          1.3490    -2.3480    -4.2160 ca         1 T3O      -0.155500
     16 CAJ          1.4750    -1.1420    -4.8910 ca         1 T3O       0.103100
     17 OAS          1.2990    -1.0950    -6.2380 oh         1 T3O      -0.523100
     18 CAG          1.7810     0.0140    -4.1880 ca         1 T3O      -0.155500
     19 CAE          1.9590    -0.0370    -2.8200 ca         1 T3O      -0.108000
     20 HAN1        -0.3700    -0.0860    -1.0150 hc         1 T3O       0.053200
     21 HAN2        -0.3700     0.9120     0.4530 hc         1 T3O       0.053200
     22 HAD          1.9110     0.8640    -0.5320 hc         1 T3O       0.067700
     23 HAL1         3.3490     1.3470     2.4090 hc         1 T3O       0.040367
     24 HAL2         3.8680     0.8570     0.7910 hc         1 T3O       0.040367
     25 HAL3         4.0110    -0.2720     2.1450 hc         1 T3O       0.040367
     26 HAO          1.7570    -0.4240     3.4030 ha         1 T3O       0.120000
     27 HAM1        -0.1670    -1.8900     2.8320 hc         1 T3O       0.052200
     28 HAM2        -0.7740    -0.2360     2.6940 hc         1 T3O       0.052200
     29 HAP         -1.5270    -1.2840     0.7610 hc         1 T3O       0.054700
     30 HAF1        -1.0780    -3.5590     1.6770 hc         1 T3O       0.043033
     31 HAF2         0.6570    -3.6030     2.0170 hc         1 T3O       0.043033
     32 HAF3        -0.0140    -4.5920     0.7130 hc         1 T3O       0.043033
     33 HAQ1        -0.6590    -2.0340    -1.7160 hc         1 T3O       0.043033
     34 HAQ2        -1.7110    -3.0570    -0.7280 hc         1 T3O       0.043033
     35 HAQ3        -0.2600    -3.7410    -1.4730 hc         1 T3O       0.043033
     36 HAB          3.0960    -1.3300    -0.4840 h1         1 T3O       0.078700
     37 HAC          1.4350    -3.3370    -2.3190 ha         1 T3O       0.143000
     38 HAH          1.1140    -3.2530    -4.7630 ha         1 T3O       0.139500
     39 HOAS         2.1280    -1.2250    -6.6680 ho         1 T3O       0.418000
     40 HAG          1.8800     0.9560    -4.7130 ha         1 T3O       0.139500
     41 HAE          2.1980     0.8660    -2.2710 ha         1 T3O       0.143000
@<TRIPOS>BOND
     1     1     2 1
     2     1     7 1
     3     1    20 1
     4     1    21 1
     5     2     3 1
     6     2    12 1
     7     2    22 1
     8     3     4 1
     9     3     5 2
    10     4    23 1
    11     4    24 1
    12     4    25 1
    13     5     6 1
    14     5    26 1
    15     6     7 1
    16     6    27 1
    17     6    28 1
    18     7     8 1
    19     7    29 1
    20     8     9 1
    21     8    10 1
    22     8    11 1
    23     9    30 1
    24     9    31 1
    25     9    32 1
    26    10    33 1
    27    10    34 1
    28    10    35 1
    29    11    12 1
    30    12    13 1
    31    12    36 1
    32    13    14 ar
    33    13    19 ar
    34    14    15 ar
    35    14    37 1
    36    15    16 ar
    37    15    38 1
    38    16    17 1
    39    16    18 ar
    40    17    39 1
    41    18    19 ar
    42    18    40 1
    43    19    41 1
@<TRIPOS>SUBSTRUCTURE
     1 T3O         1 TEMP              0 ****  ****    0 ROOT
