@<TRIPOS>MOLECULE
molecule
   45    47     1     0     0
SMALL
bcc


@<TRIPOS>ATOM
      1 C21          0.0000     0.0000     0.0000 c3         1 T3S       0.163300
      2 C22          1.5300     0.0000     0.0000 c3         1 T3S      -0.077900
      3 C23          2.0360     0.0000     1.4440 c3         1 T3S      -0.082400
      4 C24          1.4720     1.2220     2.1750 c3         1 T3S      -0.077900
      5 C25         -0.0570     1.1860     2.1120 c3         1 T3S       0.163300
      6 N26         -0.4910     1.1880     0.7100 n3         1 T3S      -0.720600
      7 C5'         -1.9530     1.2940     0.6110 c3         1 T3S       0.170800
      8 C4'         -2.4030     2.6570     1.1390 c3         1 T3S       0.146100
      9 O4'         -1.9270     3.7160     0.2810 os         1 T3S      -0.377600
     10 C3'         -3.9450     2.7930     1.0590 c3         1 T3S       0.115100
     11 O3'         -4.5650     2.2480     2.2240 oh         1 T3S      -0.602800
     12 C2'         -4.1330     4.3280     1.0000 c3         1 T3S      -0.150400
     13 C1'         -2.7690     4.8580     0.5150 c3         1 T3S       0.317500
     14 N1          -2.9410     5.6140    -0.7270 n          1 T3S      -0.364000
     15 C6          -2.6610     6.9540    -0.7500 cc         1 T3S       0.032600
     16 C5          -2.8190     7.6510    -1.8960 cd         1 T3S      -0.273400
     17 C5M         -2.5140     9.1260    -1.9400 c3         1 T3S      -0.022900
     18 C4          -3.2730     6.9770    -3.0550 c          1 T3S       0.709700
     19 O4          -3.4230     7.5850    -4.0990 o          1 T3S      -0.621500
     20 N3          -3.5390     5.6570    -2.9910 ns         1 T3S      -0.560500
     21 C2          -3.3680     4.9850    -1.8370 c          1 T3S       0.813500
     22 O2          -3.6080     3.7930    -1.7970 o          1 T3S      -0.651500
     23 H21         -0.3600    -0.8920     0.4990 h1         1 T3S       0.032450
     24 H21A        -0.3600     0.0180    -1.0220 h1         1 T3S       0.032450
     25 H22          1.8910    -0.8860    -0.5080 hc         1 T3S       0.048700
     26 H22A         1.8910     0.8860    -0.5080 hc         1 T3S       0.048700
     27 H23          1.7050    -0.9030     1.9420 hc         1 T3S       0.039200
     28 H23A         3.1190     0.0460     1.4470 hc         1 T3S       0.039200
     29 H24          1.7910     1.2020     3.2100 hc         1 T3S       0.048700
     30 H24A         1.8320     2.1250     1.6970 hc         1 T3S       0.048700
     31 H25         -0.4160     0.2870     2.5980 h1         1 T3S       0.032450
     32 H25A        -0.4580     2.0590     2.6130 h1         1 T3S       0.032450
     33 H5'         -2.2530     1.1910    -0.4250 h1         1 T3S       0.051700
     34 H5'A        -2.4120     0.5090     1.1990 h1         1 T3S       0.051700
     35 H4'         -2.0610     2.8110     2.1550 h1         1 T3S       0.062700
     36 H3'         -4.3240     2.3250     0.1580 h1         1 T3S       0.075700
     37 HO3'        -5.4230     1.9240     2.0020 ho         1 T3S       0.409000
     38 H2'         -4.9110     4.5860     0.2920 hc         1 T3S       0.071200
     39 H2'A        -4.3620     4.7180     1.9840 hc         1 T3S       0.071200
     40 H1'         -2.3280     5.4880     1.2790 h2         1 T3S       0.071700
     41 H6          -2.2200     7.4300     0.1170 h4         1 T3S       0.165000
     42 H5M         -1.4410     9.2730    -1.9210 hc         1 T3S       0.051033
     43 H5MA        -2.9220     9.5520    -2.8480 hc         1 T3S       0.051033
     44 H5MB        -2.9600     9.6120    -1.0810 hc         1 T3S       0.051033
     45 HN3         -3.8590     5.1730    -3.8060 hn         1 T3S       0.362500
@<TRIPOS>BOND
     1     1     2 1
     2     1     6 1
     3     2     3 1
     4     3     4 1
     5     4     5 1
     6     5     6 1
     7     6     7 1
     8     7     8 1
     9     8     9 1
    10     8    10 1
    11     9    13 1
    12    10    11 1
    13    10    12 1
    14    12    13 1
    15    13    14 1
    16    14    15 1
    17    14    21 1
    18    15    16 2
    19    16    17 1
    20    16    18 1
    21    18    19 2
    22    18    20 1
    23    20    21 1
    24    21    22 2
    25     1    23 1
    26     1    24 1
    27     2    25 1
    28     2    26 1
    29     3    27 1
    30     3    28 1
    31     4    29 1
    32     4    30 1
    33     5    31 1
    34     5    32 1
    35     7    33 1
    36     7    34 1
    37     8    35 1
    38    10    36 1
    39    11    37 1
    40    12    38 1
    41    12    39 1
    42    13    40 1
    43    15    41 1
    44    17    42 1
    45    17    43 1
    46    17    44 1
    47    20    45 1
@<TRIPOS>SUBSTRUCTURE
     1 T3S         1 TEMP              0 ****  ****    0 ROOT
