@<TRIPOS>MOLECULE
molecule
   48    51     1     0     0
SMALL
bcc


@<TRIPOS>ATOM
      1 O            0.0000     0.0000     0.0000 o          1 T40      -0.641500
      2 C6           1.2180     0.0000     0.0000 c          1 T40       0.711100
      3 C5           1.9560     0.0000     1.2670 ca         1 T40      -0.155600
      4 C            1.3060     0.0010     2.5000 ca         1 T40      -0.061000
      5 N            1.8970    -0.0060    -1.1630 ns         1 T40      -0.436100
      6 C7           3.2700    -0.0070    -1.2070 cc         1 T40       0.101400
      7 C8           4.0280    -0.0010    -0.0820 cd         1 T40      -0.195200
      8 C4           3.3720    -0.0000     1.2240 ca         1 T40       0.002200
      9 C3           4.1000     0.0010     2.4150 ca         1 T40      -0.092300
     10 C20          5.6070     0.0010     2.3830 c3         1 T40      -0.044800
     11 C2           3.4390     0.0020     3.6120 ca         1 T40      -0.096000
     12 C1           2.0500     0.0020     3.6590 ca         1 T40      -0.149000
     13 C9           3.9450    -0.0150    -2.5230 ca         1 T40      -0.068800
     14 C14          3.1890    -0.0210    -3.6970 ca         1 T40      -0.114000
     15 C13          3.8250    -0.0280    -4.9220 ca         1 T40      -0.112500
     16 C12          5.2070    -0.0300    -4.9880 ca         1 T40      -0.068300
     17 C11          5.9610    -0.0240    -3.8280 ca         1 T40      -0.112500
     18 C10          5.3380    -0.0100    -2.5970 ca         1 T40      -0.114000
     19 C15          5.8940    -0.0380    -6.3290 c3         1 T40       0.206100
     20 N1           6.1170     1.3440    -6.7740 n3         1 T40      -0.728600
     21 C19          6.9910     1.3830    -7.9550 c3         1 T40       0.161800
     22 C18          7.2630     2.8390    -8.3380 c3         1 T40       0.158800
     23 N2           5.9880     3.5200    -8.6050 n7         1 T40      -0.822200
     24 C17          5.1150     3.4800    -7.4230 c3         1 T40       0.158800
     25 C16          4.8430     2.0240    -7.0410 c3         1 T40       0.161800
     26 H            1.3850    -0.0110    -2.0230 hn         1 T40       0.336500
     27 HA           0.2230    -0.0000     2.5470 ha         1 T40       0.155000
     28 H1           1.5470     0.0030     4.6180 ha         1 T40       0.134000
     29 H8           5.1090    -0.0030    -0.1500 ha         1 T40       0.152000
     30 H201         5.9570     0.8850     1.8640 hc         1 T40       0.043700
     31 H202         5.9900     0.0020     3.3970 hc         1 T40       0.043700
     32 H203         5.9570    -0.8840     1.8660 hc         1 T40       0.043700
     33 H2           4.0060     0.0030     4.5350 ha         1 T40       0.131000
     34 H14          2.1070    -0.0200    -3.6460 ha         1 T40       0.133500
     35 H10          5.9300    -0.0050    -1.6890 ha         1 T40       0.133500
     36 H13          3.2400    -0.0330    -5.8340 ha         1 T40       0.138000
     37 H11          7.0420    -0.0220    -3.8860 ha         1 T40       0.138000
     38 H151         5.2710    -0.5530    -7.0500 h1         1 T40       0.042200
     39 H152         6.8450    -0.5490    -6.2440 h1         1 T40       0.042200
     40 H191         7.9280     0.8900    -7.7270 h1         1 T40       0.042450
     41 H192         6.5020     0.8790    -8.7810 h1         1 T40       0.042450
     42 H161         4.3330     1.5270    -7.8570 h1         1 T40       0.042450
     43 H162         4.2250     1.9950    -6.1510 h1         1 T40       0.042450
     44 H181         7.7720     3.3370    -7.5210 h1         1 T40       0.039700
     45 H182         7.8800     2.8680    -9.2270 h1         1 T40       0.039700
     46 HB           6.1640     4.4720    -8.8580 hn         1 T40       0.354800
     47 H171         5.6030     3.9840    -6.5980 h1         1 T40       0.039700
     48 H172         4.1780     3.9740    -7.6520 h1         1 T40       0.039700
@<TRIPOS>BOND
     1     1     2 2
     2     2     3 1
     3     2     5 1
     4     3     4 ar
     5     3     8 ar
     6     4    12 ar
     7     5     6 1
     8     6     7 2
     9     6    13 1
    10     7     8 1
    11     8     9 ar
    12     9    10 1
    13     9    11 ar
    14    11    12 ar
    15    13    14 ar
    16    13    18 ar
    17    14    15 ar
    18    15    16 ar
    19    16    17 ar
    20    16    19 1
    21    17    18 ar
    22    19    20 1
    23    20    21 1
    24    20    25 1
    25    21    22 1
    26    22    23 1
    27    23    24 1
    28    24    25 1
    29     5    26 1
    30     4    27 1
    31    12    28 1
    32     7    29 1
    33    10    30 1
    34    10    31 1
    35    10    32 1
    36    11    33 1
    37    14    34 1
    38    18    35 1
    39    15    36 1
    40    17    37 1
    41    19    38 1
    42    19    39 1
    43    21    40 1
    44    21    41 1
    45    25    42 1
    46    25    43 1
    47    22    44 1
    48    22    45 1
    49    23    46 1
    50    24    47 1
    51    24    48 1
@<TRIPOS>SUBSTRUCTURE
     1 T40         1 TEMP              0 ****  ****    0 ROOT
