@<TRIPOS>MOLECULE
molecule
   35    36     1     0     0
SMALL
bcc


@<TRIPOS>ATOM
      1 C1           0.0000     0.0000     0.0000 ca         1 T44      -0.127300
      2 C2           1.3820     0.0000     0.0000 ca         1 T44      -0.089500
      3 C3           2.0750     0.0000     1.1950 ca         1 T44       0.034900
      4 C4           1.3810    -0.0010     2.3970 ca         1 T44       0.134100
      5 C5          -0.0060    -0.0010     2.3950 ca         1 T44       0.034900
      6 C6          -0.6930     0.0060     1.1960 ca         1 T44      -0.089500
      7 C7          -0.7530     0.0010    -1.3060 c3         1 T44      -0.042100
      8 C8          -1.0080    -1.4390    -1.7490 c3         1 T44      -0.013500
      9 C9          -1.7600    -1.4390    -3.0550 c          1 T44       0.864600
     10 C1'          2.2550     1.2990     3.9150 ca         1 T44       0.092100
     11 C2'          2.9300     1.6150     5.0860 ca         1 T44      -0.121000
     12 C3'          3.1290     2.9370     5.4320 ca         1 T44       0.056400
     13 C4'          2.6560     3.9480     4.6110 ca         1 T44       0.136100
     14 C5'          1.9810     3.6320     3.4400 ca         1 T44       0.056400
     15 C6'          1.7870     2.3100     3.0900 ca         1 T44      -0.121000
     16 N8           0.2750    -2.1330    -1.9240 nz         1 T44      -0.790600
     17 O4           2.0590    -0.0020     3.5750 os         1 T44      -0.200200
     18 O4'          2.8520     5.2510     4.9520 oh         1 T44      -0.501100
     19 O9          -3.1030    -1.4390    -3.0550 o          1 T44      -0.768800
     20 O10         -1.1570    -1.4390    -4.1000 o          1 T44      -0.768800
     21 I3           4.1690     0.0000     1.1930 i          1 T44      -0.107400
     22 I3'          4.1480     3.4150     7.2000 i          1 T44      -0.126900
     23 I5          -1.0580    -0.0020     4.2060 i          1 T44      -0.107400
     24 I5'          1.2650     5.1600     2.1980 i          1 T44      -0.126900
     25 H2           1.9220    -0.0020    -0.9390 ha         1 T44       0.154000
     26 H6          -1.7770     0.0060     1.1930 ha         1 T44       0.154000
     27 H71         -0.1670     0.5120    -2.0600 hc         1 T44       0.097700
     28 H72         -1.6990     0.5120    -1.1760 hc         1 T44       0.097700
     29 H8          -1.5940    -1.9510    -0.9950 hx         1 T44       0.107700
     30 H2'          3.2980     0.8250     5.7290 ha         1 T44       0.162500
     31 H6'          1.2600     2.0630     2.1770 ha         1 T44       0.162500
     32 HN81         0.9290    -1.5180    -2.3670 hn         1 T44       0.440800
     33 HN82         0.6300    -2.4090    -1.0300 hn         1 T44       0.440800
     34 HO4'         3.6680     5.5520     4.5870 ho         1 T44       0.432000
     35 H83          0.1400    -2.9470    -2.4900 hn         1 T44       0.440800
@<TRIPOS>BOND
     1     1     2 ar
     2     1     6 ar
     3     1     7 1
     4     2     3 ar
     5     2    25 1
     6     3     4 ar
     7     3    21 1
     8     4     5 ar
     9     4    17 1
    10     5     6 ar
    11     5    23 1
    12     6    26 1
    13     7     8 1
    14     7    27 1
    15     7    28 1
    16     8     9 1
    17     8    16 1
    18     8    29 1
    19     9    19 1
    20     9    20 1
    21    10    11 ar
    22    10    15 ar
    23    10    17 1
    24    11    12 ar
    25    11    30 1
    26    12    13 ar
    27    12    22 1
    28    13    14 ar
    29    13    18 1
    30    14    15 ar
    31    14    24 1
    32    15    31 1
    33    16    32 1
    34    16    33 1
    35    18    34 1
    36    35    16 1
@<TRIPOS>SUBSTRUCTURE
     1 T44         1 TEMP              0 ****  ****    0 ROOT
