@<TRIPOS>MOLECULE
T45
   14    14     1     0     0
SMALL
bcc


@<TRIPOS>ATOM
      1 O1         -0.0080   -0.0030    0.1320 o         1 T45     -0.512000
      2 C3          1.2190   -0.0020    0.0310 c         1 T45      0.573600
      3 O           1.9710    0.0000    1.1790 os        1 T45     -0.437900
      4 C4          1.2400    0.0010    2.4080 c3        1 T45      0.127700
      5 C2          2.0420   -0.0030   -1.1710 cc        1 T45      0.158500
      6 N3          1.5720   -0.0040   -2.4590 nd        1 T45     -0.419800
      7 N2          2.6660   -0.0040   -3.2120 na        1 T45      0.149900
      8 N1          3.8380   -0.0040   -2.5540 nd        1 T45     -0.497800
      9 C1          3.5020   -0.0030   -1.2420 cc        1 T45      0.263900
     10 H4C1        0.6040   -0.9150    2.4730 h1        1 T45      0.054033
     11 H4C2        0.6030    0.9160    2.4710 h1        1 T45      0.054033
     12 H4C3        2.0420    0.0020    3.1870 h1        1 T45      0.054033
     13 H1          4.2080   -0.0020   -0.4110 h4        1 T45      0.075100
     14 H2          2.6210   -0.0050   -4.2140 hn        1 T45      0.356700
@<TRIPOS>BOND
     1    1    2 2   
     2    2    3 1   
     3    2    5 1   
     4    3    4 1   
     5    4   10 1   
     6    4   11 1   
     7    4   12 1   
     8    5    6 2   
     9    5    9 1   
    10    6    7 1   
    11    7    8 1   
    12    7   14 1   
    13    8    9 2   
    14    9   13 1   
@<TRIPOS>SUBSTRUCTURE
     1 T45         1 TEMP              0 ****  ****    0 ROOT
