@<TRIPOS>MOLECULE
molecule
   14    14     1     0     0
SMALL
bcc


@<TRIPOS>ATOM
      1 O1           0.0000     0.0000     0.0000 o          1 T45      -0.512000
      2 C3           1.2510     0.0000     0.0000 c          1 T45       0.567600
      3 O            1.9870     0.0000     1.1640 os         1 T45      -0.429900
      4 C4           1.2720     0.0010     2.4040 c3         1 T45       0.135700
      5 C2           2.0780    -0.0020    -1.1700 cc         1 T45       0.163500
      6 N3           1.5440    -0.0030    -2.3940 nd         1 T45      -0.396800
      7 N2           2.6500    -0.0050    -3.1550 na         1 T45       0.128900
      8 N1           3.8460    -0.0060    -2.5450 nd         1 T45      -0.462800
      9 C1           3.4770    -0.0030    -1.2620 cc         1 T45       0.247900
     10 H4C1         0.6480    -0.8840     2.4620 h1         1 T45       0.049367
     11 H4C2         0.6490     0.8860     2.4610 h1         1 T45       0.049367
     12 H4C3         1.9760     0.0010     3.2270 h1         1 T45       0.049367
     13 H1           4.1570    -0.0030    -0.4190 h4         1 T45       0.066100
     14 H2           2.5850    -0.0060    -4.1540 hn         1 T45       0.344700
@<TRIPOS>BOND
     1     1     2 2
     2     2     3 1
     3     2     5 1
     4     3     4 1
     5     4    10 1
     6     4    11 1
     7     4    12 1
     8     5     6 2
     9     5     9 1
    10     6     7 1
    11     7     8 1
    12     7    14 1
    13     8     9 2
    14     9    13 1
@<TRIPOS>SUBSTRUCTURE
     1 T45         1 TEMP              0 ****  ****    0 ROOT
