@<TRIPOS>MOLECULE
T4A
   29    30     1     0     0
SMALL
bcc


@<TRIPOS>ATOM
      1 C1          0.0770   -0.2520   -0.2530 ca        1 T4A     -0.006300
      2 C2          1.4590   -0.0320   -0.2760 ca        1 T4A     -0.093000
      3 C3          2.1720    0.1970    0.9010 ca        1 T4A      0.021400
      4 C4          1.4880    0.1990    2.1240 ca        1 T4A      0.088100
      5 C5          0.1050   -0.0490    2.1710 ca        1 T4A      0.021400
      6 C6         -0.5870   -0.2790    0.9860 ca        1 T4A     -0.093000
      7 C7         -0.6810   -0.4390   -1.5090 c3        1 T4A     -0.191100
      8 C8         -1.6410   -1.6610   -1.4730 c         1 T4A      0.921600
      9 C1'         2.3750    1.5950    3.8170 ca        1 T4A      0.099100
     10 C6'         3.1270    1.6680    5.0030 ca        1 T4A     -0.088500
     11 C5'         3.3570    2.9020    5.5990 ca        1 T4A     -0.007100
     12 C4'         2.8340    4.0690    5.0070 ca        1 T4A      0.155100
     13 C3'         2.0830    3.9900    3.8220 ca        1 T4A     -0.007100
     14 C2'         1.8540    2.7490    3.2280 ca        1 T4A     -0.088500
     15 I3          4.1710    0.4970    0.7380 i         1 T4A     -0.154400
     16 I5         -0.9450   -0.1110    3.9050 i         1 T4A     -0.154400
     17 I5'         4.4490    2.9250    7.3050 i         1 T4A     -0.136400
     18 I3'         1.2970    5.6190    2.9100 i         1 T4A     -0.136400
     19 O8         -2.5770   -1.6480   -0.6260 o         1 T4A     -0.827300
     20 O9         -1.4420   -2.5680   -2.3220 o         1 T4A     -0.827300
     21 O4          2.2120    0.3100    3.3170 os        1 T4A     -0.235200
     22 O4'         3.1020    5.2550    5.6490 oh        1 T4A     -0.489100
     23 H21         1.9850   -0.0490   -1.2450 ha        1 T4A      0.182500
     24 H61        -1.6710   -0.5270    0.9730 ha        1 T4A      0.182500
     25 H71         0.0150   -0.5580   -2.3780 hc        1 T4A      0.047700
     26 H72        -1.3190    0.4660   -1.6860 hc        1 T4A      0.047700
     27 H6'1        3.5200    0.7360    5.4380 ha        1 T4A      0.170000
     28 H2'1        1.2640    2.6670    2.2990 ha        1 T4A      0.170000
     29 H4'O        2.6790    5.9740    5.1510 ho        1 T4A      0.427000
@<TRIPOS>BOND
     1    1    2 ar  
     2    1    6 ar  
     3    1    7 1   
     4    2    3 ar  
     5    2   23 1   
     6    3    4 ar  
     7    3   15 1   
     8    4    5 ar  
     9    4   21 1   
    10    5    6 ar  
    11    5   16 1   
    12    6   24 1   
    13    7    8 1   
    14    7   25 1   
    15    7   26 1   
    16    8   19 1   
    17    8   20 1   
    18    9   10 ar  
    19    9   14 ar  
    20    9   21 1   
    21   10   11 ar  
    22   10   27 1   
    23   11   12 ar  
    24   11   17 1   
    25   12   13 ar  
    26   12   22 1   
    27   13   14 ar  
    28   13   18 1   
    29   14   28 1   
    30   22   29 1   
@<TRIPOS>SUBSTRUCTURE
     1 T4A         1 TEMP              0 ****  ****    0 ROOT
