@<TRIPOS>MOLECULE
molecule
   29    30     1     0     0
SMALL
bcc


@<TRIPOS>ATOM
      1 C1           0.0000     0.0000     0.0000 ca         1 T4A       0.007700
      2 C2           1.3830     0.0000     0.0000 ca         1 T4A      -0.075000
      3 C3           2.0750     0.0000     1.1960 ca         1 T4A       0.050900
      4 C4           1.3800     0.0000     2.3980 ca         1 T4A       0.068100
      5 C5          -0.0080     0.0010     2.3940 ca         1 T4A       0.050900
      6 C6          -0.6940     0.0060     1.1940 ca         1 T4A      -0.075000
      7 C7          -0.7520     0.0010    -1.3070 c3         1 T4A      -0.160100
      8 C8          -1.0030    -1.4200    -1.7430 c          1 T4A       0.892600
      9 C1'          2.2530     1.3010     3.9150 ca         1 T4A       0.120100
     10 C6'          2.9260     1.6170     5.0860 ca         1 T4A      -0.124000
     11 C5'          3.1260     2.9400     5.4320 ca         1 T4A       0.060900
     12 C4'          2.6520     3.9510     4.6100 ca         1 T4A       0.112100
     13 C3'          1.9780     3.6340     3.4390 ca         1 T4A       0.060900
     14 C2'          1.7840     2.3110     3.0910 ca         1 T4A      -0.124000
     15 I3           4.1690    -0.0010     1.1960 i          1 T4A      -0.177400
     16 I5          -1.0610     0.0010     4.2040 i          1 T4A      -0.177400
     17 I5'          4.1440     3.4190     7.2000 i          1 T4A      -0.156900
     18 I3'          1.2640     5.1620     2.1960 i          1 T4A      -0.156900
     19 O8          -0.6100    -2.3380    -1.0630 o          1 T4A      -0.832800
     20 O9          -1.6600    -1.6640    -2.8870 o          1 T4A      -0.832800
     21 O4           2.0580    -0.0000     3.5750 os         1 T4A      -0.194200
     22 O4'          2.8490     5.2530     4.9510 oh         1 T4A      -0.508100
     23 H21          1.9240    -0.0020    -0.9380 ha         1 T4A       0.155500
     24 H61         -1.7770     0.0060     1.1900 ha         1 T4A       0.155500
     25 H71         -0.1650     0.5110    -2.0610 hc         1 T4A       0.049200
     26 H72         -1.6980     0.5120    -1.1790 hc         1 T4A       0.049200
     27 H6'1         3.2950     0.8280     5.7290 ha         1 T4A       0.169000
     28 H2'1         1.2590     2.0640     2.1760 ha         1 T4A       0.169000
     29 H4'O         2.1230     5.5550     5.4720 ho         1 T4A       0.422000
@<TRIPOS>BOND
     1     1     2 ar
     2     1     6 ar
     3     1     7 1
     4     2     3 ar
     5     2    23 1
     6     3     4 ar
     7     3    15 1
     8     4     5 ar
     9     4    21 1
    10     5     6 ar
    11     5    16 1
    12     6    24 1
    13     7     8 1
    14     7    25 1
    15     7    26 1
    16     8    19 1
    17     8    20 1
    18     9    10 ar
    19     9    14 ar
    20     9    21 1
    21    10    11 ar
    22    10    27 1
    23    11    12 ar
    24    11    17 1
    25    12    13 ar
    26    12    22 1
    27    13    14 ar
    28    13    18 1
    29    14    28 1
    30    22    29 1
@<TRIPOS>SUBSTRUCTURE
     1 T4A         1 TEMP              0 ****  ****    0 ROOT
