@<TRIPOS>MOLECULE
T4B
   61    65     1     0     0
SMALL
bcc


@<TRIPOS>ATOM
      1 C1          0.2460    0.2140   -0.0620 ca        1 T4B     -0.117000
      2 C2         -0.5670   -0.2580    3.6220 cp        1 T4B     -0.024000
      3 C3         -1.2560    0.8470    4.1360 ca        1 T4B     -0.202000
      4 C7          1.5610   -0.1850    2.3660 ca        1 T4B     -0.123000
      5 C8          2.2950   -0.0400    1.1930 ca        1 T4B     -0.128000
      6 C9         -2.7680    2.9700    5.1920 c3        1 T4B     -0.012600
      7 C10        -3.9560    3.7980    5.7630 c         1 T4B      0.927600
      8 C11        -1.9900    0.7210    5.3230 ca        1 T4B      0.158100
      9 C12        -1.9940   -0.5070    6.0220 ca        1 T4B     -0.164000
     10 C13        -1.2810   -1.5820    5.5120 ca        1 T4B     -0.106000
     11 C14        -0.5680   -1.4710    4.3160 ca        1 T4B     -0.166000
     12 C15        -2.0130    3.1980   -0.2640 c3        1 T4B     -0.087100
     13 C16        -5.2480    1.6520    1.2100 ca        1 T4B     -0.031000
     14 C19        -4.0660    0.8210    1.1410 cc        1 T4B     -0.176300
     15 C20        -2.7290    1.2640    1.1130 cd        1 T4B     -0.067600
     16 C21        -2.2160    2.6510    1.1300 c3        1 T4B     -0.024100
     17 C22        -6.6260    3.2510    2.4060 ca        1 T4B     -0.133000
     18 C24        -7.2810   -2.2030    1.9430 ca        1 T4B     -0.142000
     19 C27        -5.0930   -1.5720    1.1170 ca        1 T4B     -0.100500
     20 C30        -6.1460    1.7040    0.1330 ca        1 T4B     -0.115000
     21 C           1.6360    0.1650   -0.0190 ca        1 T4B     -0.141000
     22 C4         -5.0470   -2.7540    0.3650 ca        1 T4B     -0.105000
     23 C5         -0.5040    0.0710    1.1220 ca        1 T4B      0.027800
     24 C6          0.1610   -0.1270    2.3560 cp        1 T4B      0.003000
     25 O          -5.0150    3.7960    5.0760 o         1 T4B     -0.822800
     26 O1         -3.7620    4.4580    6.8140 o         1 T4B     -0.822800
     27 O2         -2.7480    1.7150    5.8820 os        1 T4B     -0.288900
     28 C17        -5.4980    2.4320    2.3480 ca        1 T4B     -0.115000
     29 N          -1.9320    0.1000    1.0430 na        1 T4B      0.148300
     30 N1         -2.6710   -1.0190    1.0450 nd        1 T4B     -0.492800
     31 C18        -3.9820   -0.6320    1.0930 cc        1 T4B      0.361800
     32 C23        -6.2170   -1.3030    1.9110 ca        1 T4B     -0.105000
     33 C25        -7.2330   -3.3750    1.1890 ca        1 T4B     -0.138000
     34 C26        -6.1150   -3.6480    0.4020 ca        1 T4B     -0.142000
     35 C28        -7.5130    3.2970    1.3320 ca        1 T4B     -0.146000
     36 C29        -7.2710    2.5210    0.1970 ca        1 T4B     -0.133000
     37 H91        -2.9280    2.8120    4.0940 h1        1 T4B      0.021200
     38 H92        -1.7950    3.4910    5.3730 h1        1 T4B      0.021200
     39 H3         -1.2260    1.8040    3.5960 ha        1 T4B      0.143000
     40 H14        -0.0260   -2.3370    3.9130 ha        1 T4B      0.124000
     41 H13        -1.2840   -2.5410    6.0520 ha        1 T4B      0.119000
     42 H12        -2.5710   -0.5880    6.9530 ha        1 T4B      0.147000
     43 H1         -0.2650    0.3650   -1.0250 ha        1 T4B      0.143000
     44 H           2.2130    0.2820   -0.9470 ha        1 T4B      0.128000
     45 H8          3.3930   -0.0850    1.2230 ha        1 T4B      0.128000
     46 H7          2.0770   -0.3450    3.3260 ha        1 T4B      0.143000
     47 H4         -4.1640   -2.9780   -0.2530 ha        1 T4B      0.149500
     48 H26        -6.0730   -4.5730   -0.1910 ha        1 T4B      0.123500
     49 H25        -8.0730   -4.0830    1.2170 ha        1 T4B      0.118000
     50 H24        -8.1580   -1.9850    2.5690 ha        1 T4B      0.123500
     51 H23        -6.2530   -0.3740    2.5040 ha        1 T4B      0.149500
     52 H17        -4.8200    2.4190    3.2240 ha        1 T4B      0.155500
     53 H22        -6.7830    3.8530    3.3190 ha        1 T4B      0.145500
     54 H28        -8.4010    3.9420    1.3770 ha        1 T4B      0.117000
     55 H29        -7.9700    2.5540   -0.6500 ha        1 T4B      0.145500
     56 H30        -5.9580    1.0930   -0.7620 ha        1 T4B      0.155500
     57 H211       -2.9670    3.2820    1.6850 hc        1 T4B      0.071700
     58 H212       -1.2460    2.7060    1.6950 hc        1 T4B      0.071700
     59 H151       -2.9720    3.1850   -0.8360 hc        1 T4B      0.034033
     60 H152       -1.6480    4.2510   -0.2060 hc        1 T4B      0.034033
     61 H153       -1.2600    2.5880   -0.8200 hc        1 T4B      0.034033
@<TRIPOS>BOND
     1    1   21 ar  
     2    1   23 ar  
     3    1   43 1   
     4    2    3 ar  
     5    2   11 ar  
     6    2   24 1   
     7    3    8 ar  
     8    3   39 1   
     9    4    5 ar  
    10    4   24 ar  
    11    4   46 1   
    12    5   21 ar  
    13    5   45 1   
    14    6    7 1   
    15    6   27 1   
    16    6   37 1   
    17    6   38 1   
    18    7   25 1   
    19    7   26 1   
    20    8    9 ar  
    21    8   27 1   
    22    9   10 ar  
    23    9   42 1   
    24   10   11 ar  
    25   10   41 1   
    26   11   40 1   
    27   12   16 1   
    28   12   59 1   
    29   12   60 1   
    30   12   61 1   
    31   13   14 1   
    32   13   20 ar  
    33   13   28 ar  
    34   14   15 2   
    35   14   31 1   
    36   15   16 1   
    37   15   29 1   
    38   16   57 1   
    39   16   58 1   
    40   17   28 ar  
    41   17   35 ar  
    42   17   53 1   
    43   18   32 ar  
    44   18   33 ar  
    45   18   50 1   
    46   19   22 ar  
    47   19   31 1   
    48   19   32 ar  
    49   20   36 ar  
    50   20   56 1   
    51   21   44 1   
    52   22   34 ar  
    53   22   47 1   
    54   23   24 ar  
    55   23   29 1   
    56   28   52 1   
    57   29   30 1   
    58   30   31 2   
    59   32   51 1   
    60   33   34 ar  
    61   33   49 1   
    62   34   48 1   
    63   35   36 ar  
    64   35   54 1   
    65   36   55 1   
@<TRIPOS>SUBSTRUCTURE
     1 T4B         1 TEMP              0 ****  ****    0 ROOT
