@<TRIPOS>MOLECULE
molecule
   61    65     1     0     0
SMALL
bcc


@<TRIPOS>ATOM
      1 C1           0.0000     0.0000     0.0000 ca         1 T4B      -0.114000
      2 C2          -0.6920     0.0030     3.6920 cp         1 T4B      -0.014000
      3 C3          -1.0220     1.2100     4.3000 ca         1 T4B      -0.221000
      4 C7           1.3950     0.0010     2.4160 ca         1 T4B      -0.121000
      5 C8           2.0930     0.0000     1.2070 ca         1 T4B      -0.126000
      6 C9          -2.2690     3.5030     5.2700 c3         1 T4B       0.031400
      7 C10         -3.2460     4.4360     5.9300 c          1 T4B       0.894600
      8 C11         -1.6870     1.2120     5.5260 ca         1 T4B       0.169100
      9 C12         -2.0200     0.0040     6.1400 ca         1 T4B      -0.177000
     10 C13         -1.6870    -1.2050     5.5270 ca         1 T4B      -0.115000
     11 C14         -1.0220    -1.2060     4.3020 ca         1 T4B      -0.166000
     12 C15         -2.1260     3.0370    -0.2420 c3         1 T4B      -0.085100
     13 C16         -5.3460     1.4470     1.0910 ca         1 T4B      -0.002000
     14 C19         -4.1760     0.6150     1.1210 cc         1 T4B      -0.211300
     15 C20         -2.8920     1.1000     1.1530 cd         1 T4B      -0.030600
     16 C21         -2.3700     2.4830     1.1650 c3         1 T4B      -0.029100
     17 C22         -7.0830     2.6580     2.2560 ca         1 T4B      -0.132000
     18 C24         -6.6280    -3.2000     2.2700 ca         1 T4B      -0.139000
     19 C27         -5.0780    -1.7710     1.1010 ca         1 T4B      -0.102500
     20 C30         -5.8860     1.8490    -0.1310 ca         1 T4B      -0.107000
     21 C            1.3940     0.0000     0.0000 ca         1 T4B      -0.139000
     22 C4          -5.5510    -2.2470    -0.1190 ca         1 T4B      -0.102000
     23 C5          -0.6890     0.0010     1.2090 ca         1 T4B       0.022800
     24 C6           0.0010     0.0010     2.4160 cp         1 T4B       0.004000
     25 O           -3.4750     5.5130     5.1370 o          1 T4B      -0.829800
     26 O1          -3.7690     4.2670     7.0220 o          1 T4B      -0.829800
     27 O2          -2.0100     2.3900     6.1250 os         1 T4B      -0.310900
     28 C17         -5.9460     1.8520     2.2840 ca         1 T4B      -0.107000
     29 N           -2.0830     0.0020     1.1730 na         1 T4B       0.161300
     30 N1          -2.7500    -1.1650     1.1580 nd         1 T4B      -0.491800
     31 C18         -4.0300    -0.7830     1.1250 cc         1 T4B       0.364800
     32 C23         -5.6130    -2.2450     2.2960 ca         1 T4B      -0.102000
     33 C25         -7.1050    -3.6800     1.0510 ca         1 T4B      -0.135000
     34 C26         -6.5670    -3.2020    -0.1440 ca         1 T4B      -0.139000
     35 C28         -7.6210     3.0600     1.0340 ca         1 T4B      -0.132000
     36 C29         -7.0230     2.6560    -0.1600 ca         1 T4B      -0.132000
     37 H91         -2.6860     3.1500     4.3350 h1         1 T4B       0.034700
     38 H92         -1.3440     4.0310     5.0760 h1         1 T4B       0.034700
     39 H3          -0.1950     1.9090     4.3570 ha         1 T4B       0.145000
     40 H14         -0.6590    -2.2120     4.1320 ha         1 T4B       0.128000
     41 H13         -1.9300    -2.1420     6.0120 ha         1 T4B       0.121000
     42 H12         -2.5420     0.0050     7.0890 ha         1 T4B       0.144000
     43 H1          -0.5440     0.0000    -0.9370 ha         1 T4B       0.142000
     44 H            1.9350    -0.0000    -0.9380 ha         1 T4B       0.127000
     45 H8           3.1760    -0.0000     1.2060 ha         1 T4B       0.127000
     46 H7           1.9360     0.0010     3.3540 ha         1 T4B       0.141000
     47 H4          -5.1320    -1.8760    -1.0470 ha         1 T4B       0.139000
     48 H26         -6.9370    -3.5750    -1.0920 ha         1 T4B       0.123000
     49 H25         -7.8940    -4.4220     1.0320 ha         1 T4B       0.119000
     50 H24         -7.0460    -3.5710     3.1990 ha         1 T4B       0.123000
     51 H23         -5.2410    -1.8720     3.2420 ha         1 T4B       0.139000
     52 H17         -5.5270     1.5390     3.2330 ha         1 T4B       0.136500
     53 H22         -7.5480     2.9720     3.1830 ha         1 T4B       0.128000
     54 H28         -8.5050     3.6870     1.0120 ha         1 T4B       0.121000
     55 H29         -7.4420     2.9680    -1.1090 ha         1 T4B       0.128000
     56 H30         -5.4210     1.5340    -1.0570 ha         1 T4B       0.136500
     57 H211        -1.4420     2.5240     1.7220 hc         1 T4B       0.078200
     58 H212        -3.1040     3.1050     1.6620 hc         1 T4B       0.078200
     59 H151        -1.0890     3.3370    -0.3370 hc         1 T4B       0.034033
     60 H152        -2.7670     3.8940    -0.4090 hc         1 T4B       0.034033
     61 H153        -2.3490     2.2720    -0.9750 hc         1 T4B       0.034033
@<TRIPOS>BOND
     1     1    23 ar
     2     1    43 1
     3     1    21 ar
     4     2     3 ar
     5     2    11 ar
     6     2    24 1
     7     3     8 ar
     8     3    39 1
     9     4     5 ar
    10     4    24 ar
    11     4    46 1
    12     5    21 ar
    13     5    45 1
    14     6     7 1
    15     6    37 1
    16     6    38 1
    17     6    27 1
    18     7    25 1
    19     7    26 1
    20     8    27 1
    21     8     9 ar
    22     9    10 ar
    23     9    42 1
    24    10    11 ar
    25    10    41 1
    26    11    40 1
    27    12    16 1
    28    12    59 1
    29    12    60 1
    30    12    61 1
    31    13    14 1
    32    13    28 ar
    33    13    20 ar
    34    14    31 1
    35    14    15 2
    36    15    29 1
    37    15    16 1
    38    16    57 1
    39    16    58 1
    40    17    28 ar
    41    17    53 1
    42    17    35 ar
    43    18    33 ar
    44    18    50 1
    45    18    32 ar
    46    19    31 1
    47    19    22 ar
    48    19    32 ar
    49    20    36 ar
    50    20    56 1
    51    21    44 1
    52    22    47 1
    53    22    34 ar
    54    23    24 ar
    55    23    29 1
    56    28    52 1
    57    29    30 1
    58    30    31 2
    59    32    51 1
    60    33    34 ar
    61    33    49 1
    62    34    48 1
    63    35    54 1
    64    35    36 ar
    65    36    55 1
@<TRIPOS>SUBSTRUCTURE
     1 T4B         1 TEMP              0 ****  ****    0 ROOT
