@<TRIPOS>MOLECULE
molecule
   32    34     1     0     0
SMALL
bcc


@<TRIPOS>ATOM
      1 N2           0.0000     0.0000     0.0000 nb         1 T4E      -0.376000
      2 N1           1.2870     0.0000     0.0000 nb         1 T4E      -0.255000
      3 C6           1.9610     0.0000     1.1450 cp         1 T4E       0.273500
      4 C5           1.2430    -0.0000     2.3580 cq         1 T4E       0.440500
      5 N4          -0.0870    -0.0010     2.3090 nb         1 T4E      -0.709000
      6 C3          -0.6960    -0.0000     1.1320 ca         1 T4E       0.867900
      7 C10          6.2130    -0.0000     1.1510 ca         1 T4E       0.124100
      8 C11          5.5180     0.8480     2.0030 ca         1 T4E      -0.153000
      9 C12          4.1400     0.8510     2.0030 ca         1 T4E      -0.088000
     10 C7           3.4420     0.0000     1.1460 cp         1 T4E      -0.146500
     11 C8           4.1420    -0.8510     0.2910 ca         1 T4E      -0.078000
     12 C9           5.5210    -0.8450     0.2920 ca         1 T4E      -0.004600
     13 C16          3.2800    -0.0040     6.0890 ca         1 T4E      -0.109000
     14 C17          2.2040     0.8430     5.8920 ca         1 T4E      -0.135500
     15 C18          1.5400     0.8490     4.6830 ca         1 T4E      -0.091000
     16 C13          1.9530    -0.0020     3.6580 cq         1 T4E      -0.171500
     17 C14          3.0390    -0.8520     3.8620 ca         1 T4E      -0.091000
     18 C15          3.6960    -0.8490     5.0760 ca         1 T4E      -0.135500
     19 N3          -2.0800    -0.0000     1.0800 nv         1 T4E      -1.050500
     20 Cl1          6.3940    -1.9040    -0.7730 cl         1 T4E      -0.087400
     21 H1           6.0600     1.5070     2.6700 ha         1 T4E       0.151000
     22 H2           3.6000     1.5130     2.6680 ha         1 T4E       0.149000
     23 H3           3.6030    -1.5100    -0.3790 ha         1 T4E       0.163000
     24 H4           3.7990    -0.0050     7.0400 ha         1 T4E       0.134000
     25 H5           1.8830     1.5030     6.6890 ha         1 T4E       0.137500
     26 H6           0.6970     1.5130     4.5300 ha         1 T4E       0.144500
     27 H7           3.3660    -1.5150     3.0700 ha         1 T4E       0.144500
     28 H8           4.5400    -1.5100     5.2360 ha         1 T4E       0.137500
     29 H9          -2.5720     0.8390     0.8430 hn         1 T4E       0.449800
     30 H10         -2.5880    -0.8410     1.2690 hn         1 T4E       0.449800
     31 H11          7.8860     0.6640     0.5620 ho         1 T4E       0.427000
     32 O1           7.5710    -0.0000     1.1530 oh         1 T4E      -0.511100
@<TRIPOS>BOND
     1    13    18 ar
     2    13    14 ar
     3    18    17 ar
     4    14    15 ar
     5    17    16 1
     6    15    16 2
     7    16     4 1
     8     5     4 1
     9     5     6 ar
    10    19     6 1
    11     4     3 2
    12     6     1 ar
    13     3    10 1
    14     3     2 ar
    15     1     2 ar
    16    10    11 ar
    17    10     9 ar
    18    11    12 ar
    19     9     8 ar
    20    12    20 1
    21    12     7 ar
    22     8     7 ar
    23     7    32 1
    24     8    21 1
    25     9    22 1
    26    11    23 1
    27    13    24 1
    28    14    25 1
    29    15    26 1
    30    17    27 1
    31    18    28 1
    32    19    29 1
    33    19    30 1
    34    32    31 1
@<TRIPOS>SUBSTRUCTURE
     1 T4E         1 TEMP              0 ****  ****    0 ROOT
