@<TRIPOS>MOLECULE
T4E
   32    34     1     0     0
SMALL
bcc


@<TRIPOS>ATOM
      1 N2           0.0000     0.0000     0.0000 nb         1 T4E      -0.342000
      2 N1           1.2870     0.0000     0.0000 nb         1 T4E      -0.227000
      3 C6           1.9610     0.0000     1.1450 cp         1 T4E       0.272500
      4 C5           1.2430    -0.0000     2.3580 cq         1 T4E       0.395500
      5 N4          -0.0870    -0.0010     2.3090 nb         1 T4E      -0.594000
      6 C3          -0.6960    -0.0000     1.1320 ca         1 T4E       0.668900
      7 C10          6.2130    -0.0000     1.1510 ca         1 T4E       0.140100
      8 C11          5.5180     0.8480     2.0030 ca         1 T4E      -0.136000
      9 C12          4.1400     0.8510     2.0030 ca         1 T4E      -0.065000
     10 C7           3.4420     0.0000     1.1460 cp         1 T4E      -0.156500
     11 C8           4.1420    -0.8510     0.2910 ca         1 T4E      -0.049000
     12 C9           5.5210    -0.8450     0.2920 ca         1 T4E      -0.082600
     13 C16          3.2800    -0.0040     6.0890 ca         1 T4E      -0.084000
     14 C17          2.2040     0.8430     5.8920 ca         1 T4E      -0.106500
     15 C18          1.5400     0.8490     4.6830 ca         1 T4E      -0.071000
     16 C13          1.9530    -0.0020     3.6580 cq         1 T4E      -0.173500
     17 C14          3.0390    -0.8520     3.8620 ca         1 T4E      -0.071000
     18 C15          3.6960    -0.8490     5.0760 ca         1 T4E      -0.106500
     19 N3          -2.0800    -0.0000     1.0800 nv         1 T4E      -0.614500
     20 Cl1          6.3940    -1.9040    -0.7730 cl         1 T4E      -0.001400
     21 H1           6.0600     1.5070     2.6700 ha         1 T4E       0.120000
     22 H2           3.6000     1.5130     2.6680 ha         1 T4E       0.121000
     23 H3           3.6030    -1.5100    -0.3790 ha         1 T4E       0.129000
     24 H4           3.7990    -0.0050     7.0400 ha         1 T4E       0.104000
     25 H5           1.8830     1.5030     6.6890 ha         1 T4E       0.108000
     26 H6           0.6970     1.5130     4.5300 ha         1 T4E       0.116500
     27 H7           3.3660    -1.5150     3.0700 ha         1 T4E       0.116500
     28 H8           4.5400    -1.5100     5.2360 ha         1 T4E       0.108000
     29 H9          -2.5720     0.8390     0.8430 hn         1 T4E       0.282800
     30 H10         -2.5880    -0.8410     1.2690 hn         1 T4E       0.282800
     31 H11          7.8860     0.6640     0.5620 ho         1 T4E       0.409000
     32 O1           7.5710    -0.0000     1.1530 oh         1 T4E      -0.493100
@<TRIPOS>BOND
     1     1     2 ar  
     2     1     6 ar  
     3     2     3 ar  
     4     3     4 1   
     5     3    10 1   
     6     4     5 2   
     7     4    16 1   
     8     5     6 ar  
     9     6    19 1   
    10     7     8 ar  
    11     7    12 ar  
    12     7    32 1   
    13     8     9 ar  
    14     8    21 1   
    15     9    10 ar  
    16     9    22 1   
    17    10    11 ar  
    18    11    12 ar  
    19    11    23 1   
    20    12    20 1   
    21    13    14 ar  
    22    13    18 ar  
    23    13    24 1   
    24    14    15 ar  
    25    14    25 1   
    26    15    16 1   
    27    15    26 1   
    28    16    17 2   
    29    17    18 ar  
    30    17    27 1   
    31    18    28 1   
    32    19    29 1   
    33    19    30 1   
    34    31    32 1   
@<TRIPOS>SUBSTRUCTURE
     1 T4E         1 TEMP              0 ****  ****    0 ROOT
