@<TRIPOS>MOLECULE
molecule
   36    38     1     0     0
SMALL
bcc


@<TRIPOS>ATOM
      1 N2           0.0000     0.0000     0.0000 nb         1 T4G      -0.432000
      2 N1           1.2860     0.0000     0.0000 nb         1 T4G      -0.221000
      3 C6           1.9590     0.0000     1.1450 cp         1 T4G       0.220500
      4 C5           1.2420     0.0010     2.3580 cq         1 T4G       0.480500
      5 N4          -0.0890     0.0020     2.3080 nb         1 T4G      -0.760000
      6 C3          -0.6970     0.0010     1.1300 ca         1 T4G       0.880900
      7 N5           6.1780    -0.0050     1.1530 nb         1 T4G      -0.692000
      8 C10          5.5370     0.6590     2.0960 ca         1 T4G       0.425600
      9 C11          4.1590     0.6870     2.1310 ca         1 T4G      -0.235300
     10 C7           3.4410    -0.0020     1.1480 cp         1 T4G      -0.098500
     11 C8           4.1610    -0.6910     0.1660 ca         1 T4G      -0.235300
     12 C9           5.5390    -0.6660     0.2060 ca         1 T4G       0.425600
     13 C17          3.2780    -0.0010     6.0890 ca         1 T4G      -0.105000
     14 C18          2.0850     0.6890     5.9550 ca         1 T4G      -0.144500
     15 C19          1.4200     0.6940     4.7460 ca         1 T4G      -0.083000
     16 C14          1.9520     0.0000     3.6580 cq         1 T4G      -0.180500
     17 C15          3.1540    -0.6920     3.8000 ca         1 T4G      -0.083000
     18 C16          3.8090    -0.6890     5.0130 ca         1 T4G      -0.144500
     19 N3          -2.0790     0.0030     1.0790 nv         1 T4G      -0.979500
     20 C13          6.3270    -1.4040    -0.8450 c3         1 T4G      -0.138900
     21 H1           3.6400     1.2340     2.9090 ha         1 T4G       0.155000
     22 H2           3.6430    -1.2370    -0.6140 ha         1 T4G       0.155000
     23 H3           3.7970    -0.0020     7.0400 ha         1 T4G       0.133000
     24 H4           1.6740     1.2260     6.8010 ha         1 T4G       0.137000
     25 H5           0.4870     1.2340     4.6430 ha         1 T4G       0.149500
     26 H6           3.5710    -1.2320     2.9590 ha         1 T4G       0.149500
     27 H7           4.7430    -1.2270     5.1240 ha         1 T4G       0.137000
     28 H8          -2.5470     0.0100     0.1940 hn         1 T4G       0.454800
     29 H9          -2.6120    -0.0280     1.9260 hn         1 T4G       0.454800
     30 H10          6.1060    -2.4630    -0.7860 hc         1 T4G       0.052200
     31 H11          7.3860    -1.2470    -0.6800 hc         1 T4G       0.052200
     32 H12          6.0560    -1.0330    -1.8260 hc         1 T4G       0.052200
     33 H13          6.6470     0.6990     3.9140 hc         1 T4G       0.052200
     34 H14          5.6980     2.1590     3.6000 hc         1 T4G       0.052200
     35 H15          7.1900     1.8610     2.6960 hc         1 T4G       0.052200
     36 C12          6.3230     1.3960     3.1510 c3         1 T4G      -0.138900
@<TRIPOS>BOND
     1    13    18 ar
     2    13    14 ar
     3    18    17 ar
     4    14    15 ar
     5    17    16 1
     6    15    16 2
     7    16     4 1
     8    19     6 1
     9     5     4 1
    10     5     6 ar
    11     4     3 2
    12     6     1 ar
    13     1     2 ar
    14     3     2 ar
    15     3    10 1
    16    10    11 ar
    17    10     9 ar
    18    11    12 ar
    19     9     8 ar
    20    12    20 1
    21    12     7 ar
    22     8     7 ar
    23     8    36 1
    24     9    21 1
    25    11    22 1
    26    13    23 1
    27    14    24 1
    28    15    25 1
    29    17    26 1
    30    18    27 1
    31    19    28 1
    32    19    29 1
    33    20    30 1
    34    20    31 1
    35    20    32 1
    36    36    33 1
    37    36    34 1
    38    36    35 1
@<TRIPOS>SUBSTRUCTURE
     1 T4G         1 TEMP              0 ****  ****    0 ROOT
