@<TRIPOS>MOLECULE
T4G
   36    38     1     0     0
SMALL
bcc


@<TRIPOS>ATOM
      1 N2           0.0000     0.0000     0.0000 nb         1 T4G      -0.420000
      2 N1           1.2860     0.0000     0.0000 nb         1 T4G      -0.177000
      3 C6           1.9590     0.0000     1.1450 cp         1 T4G       0.196500
      4 C5           1.2420     0.0010     2.3580 cq         1 T4G       0.448500
      5 N4          -0.0890     0.0020     2.3080 nb         1 T4G      -0.663000
      6 C3          -0.6970     0.0010     1.1300 ca         1 T4G       0.668900
      7 N5           6.1780    -0.0050     1.1530 nb         1 T4G      -0.571000
      8 C10          5.5370     0.6590     2.0960 ca         1 T4G       0.372600
      9 C11          4.1590     0.6870     2.1310 ca         1 T4G      -0.217300
     10 C7           3.4410    -0.0020     1.1480 cp         1 T4G      -0.096500
     11 C8           4.1610    -0.6910     0.1660 ca         1 T4G      -0.217300
     12 C9           5.5390    -0.6660     0.2060 ca         1 T4G       0.372600
     13 C17          3.2780    -0.0010     6.0890 ca         1 T4G      -0.078000
     14 C18          2.0850     0.6890     5.9550 ca         1 T4G      -0.116000
     15 C19          1.4200     0.6940     4.7460 ca         1 T4G      -0.067500
     16 C14          1.9520     0.0000     3.6580 cq         1 T4G      -0.184500
     17 C15          3.1540    -0.6920     3.8000 ca         1 T4G      -0.067500
     18 C16          3.8090    -0.6890     5.0130 ca         1 T4G      -0.116000
     19 N3          -2.0790     0.0030     1.0790 nv         1 T4G      -0.473500
     20 C13          6.3270    -1.4040    -0.8450 c3         1 T4G      -0.038900
     21 H1           3.6400     1.2340     2.9090 ha         1 T4G       0.137000
     22 H2           3.6430    -1.2370    -0.6140 ha         1 T4G       0.137000
     23 H3           3.7970    -0.0020     7.0400 ha         1 T4G       0.103000
     24 H4           1.6740     1.2260     6.8010 ha         1 T4G       0.108500
     25 H5           0.4870     1.2340     4.6430 ha         1 T4G       0.124500
     26 H6           3.5710    -1.2320     2.9590 ha         1 T4G       0.124500
     27 H7           4.7430    -1.2270     5.1240 ha         1 T4G       0.108500
     28 H8          -2.5470     0.0100     0.1940 hn         1 T4G       0.277800
     29 H9          -2.6120    -0.0280     1.9260 hn         1 T4G       0.277800
     30 H10          6.1060    -2.4630    -0.7860 hc         1 T4G       0.013533
     31 H11          7.3860    -1.2470    -0.6800 hc         1 T4G       0.013533
     32 H12          6.0560    -1.0330    -1.8260 hc         1 T4G       0.013533
     33 H13          6.6470     0.6990     3.9140 hc         1 T4G       0.013533
     34 H14          5.6980     2.1590     3.6000 hc         1 T4G       0.013533
     35 H15          7.1900     1.8610     2.6960 hc         1 T4G       0.013533
     36 C12          6.3230     1.3960     3.1510 c3         1 T4G      -0.038900
@<TRIPOS>BOND
     1     1     2 ar  
     2     1     6 ar  
     3     2     3 ar  
     4     3     4 1   
     5     3    10 1   
     6     4     5 2   
     7     4    16 1   
     8     5     6 ar  
     9     6    19 1   
    10     7     8 ar  
    11     7    12 ar  
    12     8     9 ar  
    13     8    36 1   
    14     9    10 ar  
    15     9    21 1   
    16    10    11 ar  
    17    11    12 ar  
    18    11    22 1   
    19    12    20 1   
    20    13    14 ar  
    21    13    18 ar  
    22    13    23 1   
    23    14    15 ar  
    24    14    24 1   
    25    15    16 1   
    26    15    25 1   
    27    16    17 2   
    28    17    18 ar  
    29    17    26 1   
    30    18    27 1   
    31    19    28 1   
    32    19    29 1   
    33    20    30 1   
    34    20    31 1   
    35    20    32 1   
    36    33    36 1   
    37    34    36 1   
    38    35    36 1   
@<TRIPOS>SUBSTRUCTURE
     1 T4G         1 TEMP              0 ****  ****    0 ROOT
