@<TRIPOS>MOLECULE
T4P
   48    49     1     0     0
SMALL
bcc


@<TRIPOS>ATOM
      1 O33         5.0600    3.4820   -5.3130 o         1 T4P     -0.937167
      2 P           4.4760    4.1810   -4.1020 p5        1 T4P      1.369900
      3 O31         5.4030    4.7530   -3.0870 o         1 T4P     -0.937167
      4 O32         3.3130    5.0260   -4.5930 o         1 T4P     -0.937167
      5 O27         3.6790    2.9320   -3.2450 os        1 T4P     -0.566200
      6 C17         2.7080    2.2450   -3.9340 c3        1 T4P      0.237400
      7 C16         1.3170    2.4980   -3.3380 c3        1 T4P     -0.142400
      8 C15         0.1560    2.1430   -4.2630 c3        1 T4P      0.051000
      9 N5         -0.0790    3.0050   -5.4210 n         1 T4P     -0.243000
     10 C6          0.8300    2.7520   -6.5430 c         1 T4P      0.745500
     11 O6          0.9000    1.6840   -7.1700 o         1 T4P     -0.616500
     12 C9          0.0820    4.4130   -5.1780 cc        1 T4P     -0.304600
     13 C4         -0.5910    5.2210   -4.1870 c         1 T4P      0.772700
     14 O4         -1.4570    4.8490   -3.3680 o         1 T4P     -0.680500
     15 N3         -0.2340    6.5870   -4.2110 n         1 T4P     -0.593500
     16 C2          0.8210    7.1040   -4.9900 c         1 T4P      0.813500
     17 O2          1.1080    8.3180   -4.8770 o         1 T4P     -0.673500
     18 C8          1.0770    4.9600   -6.0160 cd        1 T4P      0.239200
     19 N1          1.4480    6.3080   -5.9960 n         1 T4P     -0.368100
     20 N7          1.5020    3.9850   -6.9680 n         1 T4P     -0.316000
     21 C10         2.9050    3.8710   -7.3070 c3        1 T4P     -0.052000
     22 C11         3.3730    4.5790   -8.5820 c3        1 T4P      0.124100
     23 O19         2.9010    5.9130   -8.7260 oh        1 T4P     -0.620800
     24 C12         4.9150    4.6880   -8.4970 c3        1 T4P      0.133100
     25 O21         5.4940    3.4390   -8.1830 oh        1 T4P     -0.682800
     26 C13         5.4930    5.1200   -9.8570 c3        1 T4P      0.100100
     27 O23         5.3710    4.0990  -10.8310 oh        1 T4P     -0.613800
     28 C14         6.9630    5.5310   -9.7150 c3        1 T4P      0.112400
     29 O26         7.8110    4.4220   -9.4990 oh        1 T4P     -0.632800
     30 H171        2.7230    2.5280   -5.0250 h1        1 T4P     -0.016300
     31 H172        2.9140    1.1350   -3.8660 h1        1 T4P     -0.016300
     32 H161        1.2060    1.8850   -2.4060 hc        1 T4P      0.049200
     33 H162        1.2450    3.5770   -3.0370 hc        1 T4P      0.049200
     34 H151       -0.8010    2.1950   -3.6670 h1        1 T4P      0.048700
     35 H152        0.2880    1.0960   -4.6550 h1        1 T4P      0.048700
     36 H3         -0.5690    7.1720   -3.4790 hn        1 T4P      0.324500
     37 H1          2.4640    6.4270   -6.0150 hn        1 T4P      0.397500
     38 H101        3.1530    2.7760   -7.4320 h1        1 T4P      0.146200
     39 H102        3.5420    4.2470   -6.4170 h1        1 T4P      0.146200
     40 H11         3.0810    3.9940   -9.4990 h1        1 T4P      0.031700
     41 H19         1.9440    5.8880   -8.6260 ho        1 T4P      0.407000
     42 H12         5.1720    5.4540   -7.7130 h1        1 T4P      0.075700
     43 H21         5.4080    3.3020   -7.2070 ho        1 T4P      0.518000
     44 H13         4.8860    5.9800  -10.2550 h1        1 T4P      0.078700
     45 H23         5.7650    3.3050  -10.4430 ho        1 T4P      0.420000
     46 H141        7.3300    5.9860  -10.6740 h1        1 T4P      0.033700
     47 H142        7.0720    6.2700   -8.8780 h1        1 T4P      0.033700
     48 H26         7.4550    3.9310   -8.7400 ho        1 T4P      0.438000
@<TRIPOS>BOND
     1    1    2 1   
     2    2    3 1   
     3    2    4 1   
     4    2    5 1   
     5    5    6 1   
     6    6    7 1   
     7    6   30 1   
     8    6   31 1   
     9    7    8 1   
    10    7   32 1   
    11    7   33 1   
    12    8    9 1   
    13    8   34 1   
    14    8   35 1   
    15    9   10 1   
    16    9   12 1   
    17   10   11 2   
    18   10   20 1   
    19   12   13 1   
    20   12   18 2   
    21   13   14 2   
    22   13   15 1   
    23   15   16 1   
    24   15   36 1   
    25   16   17 2   
    26   16   19 1   
    27   18   19 1   
    28   18   20 1   
    29   19   37 1   
    30   20   21 1   
    31   21   22 1   
    32   21   38 1   
    33   21   39 1   
    34   22   23 1   
    35   22   24 1   
    36   22   40 1   
    37   23   41 1   
    38   24   25 1   
    39   24   26 1   
    40   24   42 1   
    41   25   43 1   
    42   26   27 1   
    43   26   28 1   
    44   26   44 1   
    45   27   45 1   
    46   28   29 1   
    47   28   46 1   
    48   28   47 1   
    49   29   48 1   
@<TRIPOS>SUBSTRUCTURE
     1 T4P         1 TEMP              0 ****  ****    0 ROOT
