@<TRIPOS>MOLECULE
molecule
   41    44     1     0     0
SMALL
bcc


@<TRIPOS>ATOM
      1 N1           0.0000     0.0000     0.0000 na         1 T50      -0.141300
      2 C2           1.3690     0.0000     0.0000 cc         1 T50       0.467400
      3 N3           1.8130     0.0000     1.2330 nd         1 T50      -0.573100
      4 C4           0.6710    -0.0030     3.4890 ca         1 T50      -0.020300
      5 C5          -0.5680    -0.0020     4.0890 ca         1 T50      -0.152000
      6 C6          -1.7230    -0.0010     3.3210 ca         1 T50      -0.107000
      7 C7          -1.6480    -0.0010     1.9450 ca         1 T50      -0.138000
      8 C8          -0.4080    -0.0010     1.3210 ca         1 T50      -0.077200
      9 C9           0.7660     0.0050     2.0940 ca         1 T50       0.089400
     10 C17          2.2180     0.0010    -1.2100 ca         1 T50      -0.172900
     11 C18          2.0730    -1.0040    -2.1700 ca         1 T50       0.187900
     12 C4A          1.9190    -0.0030     4.3320 c3         1 T50      -0.043800
     13 C19          2.8670    -0.9930    -3.3010 ca         1 T50      -0.186000
     14 C20          3.8110     0.0020    -3.4790 ca         1 T50      -0.066000
     15 C21          3.9640     0.9970    -2.5300 ca         1 T50      -0.186000
     16 C22          3.1740     1.0030    -1.3960 ca         1 T50       0.187900
     17 F1           1.1520    -1.9770    -1.9990 f          1 T50      -0.122400
     18 F2           3.3260     1.9750    -0.4700 f          1 T50      -0.122400
     19 C10         -0.8700     0.0010    -1.1790 c3         1 T50       0.101600
     20 C11         -1.2160     1.4210    -1.5460 ca         1 T50      -0.198300
     21 C12         -2.3410     2.0220    -1.0090 ca         1 T50       0.176900
     22 C13         -2.6540     3.3280    -1.3440 ca         1 T50      -0.181000
     23 C14         -1.8500     4.0300    -2.2220 ca         1 T50      -0.068000
     24 C15         -0.7300     3.4280    -2.7650 ca         1 T50      -0.181000
     25 C16         -0.4110     2.1240    -2.4270 ca         1 T50       0.176900
     26 F3          -3.1270     1.3380    -0.1500 f          1 T50      -0.131400
     27 F4           0.6840     1.5370    -2.9570 f          1 T50      -0.131400
     28 H5          -0.6410    -0.0030     5.1700 ha         1 T50       0.133000
     29 H6          -2.6910    -0.0010     3.8070 ha         1 T50       0.131000
     30 H7          -2.5540     0.0000     1.3510 ha         1 T50       0.138000
     31 H4A1         2.3440     0.9930     4.3490 hc         1 T50       0.047033
     32 H4A2         1.6730    -0.3070     5.3430 hc         1 T50       0.047033
     33 H4A3         2.6390    -0.6960     3.9120 hc         1 T50       0.047033
     34 H19          2.7550    -1.7700    -4.0470 ha         1 T50       0.152000
     35 H20          4.4320     0.0040    -4.3670 ha         1 T50       0.144000
     36 H21          4.7060     1.7740    -2.6760 ha         1 T50       0.152000
     37 H101        -0.3560    -0.4710    -2.0070 h1         1 T50       0.082200
     38 H102        -1.7780    -0.5460    -0.9580 h1         1 T50       0.082200
     39 H13         -3.5330     3.8000    -0.9210 ha         1 T50       0.152500
     40 H14         -2.0970     5.0510    -2.4850 ha         1 T50       0.147000
     41 H15         -0.1000     3.9780    -3.4540 ha         1 T50       0.152500
@<TRIPOS>BOND
     1     1     2 1
     2     1     8 1
     3     1    19 1
     4     2     3 2
     5     2    10 1
     6     3     9 1
     7     4     5 ar
     8     4     9 ar
     9     4    12 1
    10     5     6 ar
    11     5    28 1
    12     6     7 ar
    13     6    29 1
    14     7     8 ar
    15     7    30 1
    16     8     9 ar
    17    10    11 ar
    18    10    16 ar
    19    11    13 ar
    20    11    17 1
    21    12    31 1
    22    12    32 1
    23    12    33 1
    24    13    14 ar
    25    13    34 1
    26    14    15 ar
    27    14    35 1
    28    15    16 ar
    29    15    36 1
    30    16    18 1
    31    19    20 1
    32    19    37 1
    33    19    38 1
    34    20    21 ar
    35    20    25 ar
    36    21    22 ar
    37    21    26 1
    38    22    23 ar
    39    22    39 1
    40    23    24 ar
    41    23    40 1
    42    24    25 ar
    43    24    41 1
    44    25    27 1
@<TRIPOS>SUBSTRUCTURE
     1 T50         1 TEMP              0 ****  ****    0 ROOT
