@<TRIPOS>MOLECULE
T50
   41    44     1     0     0
SMALL
bcc


@<TRIPOS>ATOM
      1 N1          0.1660    0.1820   -0.1440 na        1 T50     -0.154300
      2 C2          1.5680   -0.0610   -0.0780 cc        1 T50      0.464400
      3 N3          2.0260   -0.1360    1.1900 nd        1 T50     -0.537100
      4 C4          0.7830    0.0730    3.4160 ca        1 T50     -0.008300
      5 C5         -0.4840    0.2740    3.9530 ca        1 T50     -0.159000
      6 C6         -1.6180    0.4530    3.1420 ca        1 T50     -0.106000
      7 C7         -1.5390    0.4450    1.7580 ca        1 T50     -0.138000
      8 C8         -0.2750    0.2530    1.1850 ca        1 T50     -0.056200
      9 C9          0.9010    0.0580    2.0120 ca        1 T50      0.059400
     10 C17         2.4130   -0.2350   -1.2630 ca        1 T50     -0.183900
     11 C18         2.1860   -1.2840   -2.1800 ca        1 T50      0.184400
     12 C4A         1.9750   -0.1190    4.2700 c3        1 T50     -0.050800
     13 C19         3.0410   -1.4740   -3.2810 ca        1 T50     -0.189500
     14 C20         4.1260   -0.6230   -3.4650 ca        1 T50     -0.068000
     15 C21         4.3750    0.4160   -2.5760 ca        1 T50     -0.189500
     16 C22         3.5230    0.6130   -1.4710 ca        1 T50      0.184400
     17 F1          1.1380   -2.1240   -2.0100 f         1 T50     -0.120400
     18 F2          3.7780    1.6300   -0.6200 f         1 T50     -0.120400
     19 C10        -0.6390    0.3190   -1.3210 c3        1 T50      0.102600
     20 C11        -1.3370    1.6410   -1.4760 ca        1 T50     -0.186300
     21 C12        -2.7390    1.7380   -1.3550 ca        1 T50      0.168400
     22 C13        -3.3980    2.9690   -1.5330 ca        1 T50     -0.181500
     23 C14        -2.6590    4.1090   -1.8280 ca        1 T50     -0.071000
     24 C15        -1.2760    4.0450   -1.9600 ca        1 T50     -0.181500
     25 C16        -0.6170    2.8130   -1.7880 ca        1 T50      0.168400
     26 F3         -3.4750    0.6370   -1.0700 f         1 T50     -0.130400
     27 F4          0.7260    2.7620   -1.9400 f         1 T50     -0.130400
     28 H5         -0.6080    0.2910    5.0460 ha        1 T50      0.132000
     29 H6         -2.5960    0.6010    3.6240 ha        1 T50      0.131000
     30 H7         -2.4300    0.5810    1.1290 ha        1 T50      0.139000
     31 H4A1        2.4460   -1.1110    4.0540 hc        1 T50      0.050033
     32 H4A2        1.7080   -0.0790    5.3540 hc        1 T50      0.050033
     33 H4A3        2.7330    0.6760    4.0570 hc        1 T50      0.050033
     34 H19         2.8450   -2.3000   -3.9800 ha        1 T50      0.157000
     35 H20         4.7960   -0.7760   -4.3250 ha        1 T50      0.146000
     36 H21         5.2340    1.0890   -2.7180 ha        1 T50      0.157000
     37 H101        0.0320    0.1670   -2.2180 h1        1 T50      0.078700
     38 H102       -1.4140   -0.5060   -1.3150 h1        1 T50      0.078700
     39 H13        -4.4930    3.0140   -1.4330 ha        1 T50      0.156500
     40 H14        -3.1750    5.0730   -1.9600 ha        1 T50      0.147000
     41 H15        -0.6870    4.9440   -2.1950 ha        1 T50      0.156500
@<TRIPOS>BOND
     1    1    2 1   
     2    1    8 1   
     3    1   19 1   
     4    2    3 2   
     5    2   10 1   
     6    3    9 1   
     7    4    5 ar  
     8    4    9 ar  
     9    4   12 1   
    10    5    6 ar  
    11    5   28 1   
    12    6    7 ar  
    13    6   29 1   
    14    7    8 ar  
    15    7   30 1   
    16    8    9 ar  
    17   10   11 ar  
    18   10   16 ar  
    19   11   13 ar  
    20   11   17 1   
    21   12   31 1   
    22   12   32 1   
    23   12   33 1   
    24   13   14 ar  
    25   13   34 1   
    26   14   15 ar  
    27   14   35 1   
    28   15   16 ar  
    29   15   36 1   
    30   16   18 1   
    31   19   20 1   
    32   19   37 1   
    33   19   38 1   
    34   20   21 ar  
    35   20   25 ar  
    36   21   22 ar  
    37   21   26 1   
    38   22   23 ar  
    39   22   39 1   
    40   23   24 ar  
    41   23   40 1   
    42   24   25 ar  
    43   24   41 1   
    44   25   27 1   
@<TRIPOS>SUBSTRUCTURE
     1 T50         1 TEMP              0 ****  ****    0 ROOT
