@<TRIPOS>MOLECULE
molecule
   79    83     1     0     0
SMALL
bcc


@<TRIPOS>ATOM
      1 OAD          0.0000     0.0000     0.0000 o          1 T51      -0.198500
      2 NBS          1.2180     0.0000     0.0000 no         1 T51       0.293200
      3 OAE          1.8270     0.0000     1.0550 o          1 T51      -0.198500
      4 CBM          1.9590    -0.0070    -1.2820 ca         1 T51      -0.164200
      5 CAU          1.2690    -0.0140    -2.4760 ca         1 T51      -0.013000
      6 CAT          3.3430    -0.0020    -1.2780 ca         1 T51      -0.050000
      7 CAP          4.0420    -0.0090    -2.4720 ca         1 T51      -0.143000
      8 CBI          3.3650    -0.0210    -3.6740 ca         1 T51      -0.069000
      9 CBP          1.9680    -0.0220    -3.6830 ca         1 T51      -0.150600
     10 CBG          1.2350    -0.0280    -4.9670 c          1 T51       0.673700
     11 OAC          0.0190    -0.0270    -4.9720 o          1 T51      -0.586100
     12 NBD          1.9140    -0.0340    -6.1310 ns         1 T51      -0.458100
     13 CBN          1.2220    -0.1350    -7.3440 ca         1 T51       0.025600
     14 CAO         -0.0230     0.4600    -7.4860 ca         1 T51      -0.092000
     15 CAI         -0.7040     0.3590    -8.6850 ca         1 T51      -0.146000
     16 CAJ         -0.1470    -0.3340    -9.7440 ca         1 T51      -0.102000
     17 CAQ          1.0930    -0.9290    -9.6100 ca         1 T51      -0.202000
     18 CBO          1.7850    -0.8280    -8.4140 ca         1 T51       0.108100
     19 OBE          3.0070    -1.4090    -8.2820 os         1 T51      -0.347900
     20 CBA          3.5220    -2.1040    -9.4200 c3         1 T51       0.187700
     21 CBL          4.8750    -2.6770    -9.0890 ca         1 T51      -0.076300
     22 CAL          5.4190    -2.4850    -7.8320 ca         1 T51      -0.110000
     23 CAH          6.6610    -3.0110    -7.5290 ca         1 T51      -0.121000
     24 CAG          7.3590    -3.7280    -8.4820 ca         1 T51      -0.127000
     25 CAK          6.8150    -3.9220    -9.7380 ca         1 T51      -0.107000
     26 CBK          5.5710    -3.4000   -10.0400 ca         1 T51      -0.112300
     27 CAZ          4.9780    -3.6110   -11.4090 c3         1 T51       0.157300
     28 NBC          5.1760    -2.4050   -12.2180 ns         1 T51      -0.586900
     29 CBF          4.7240    -2.3640   -13.4860 c          1 T51       0.671700
     30 OAB          4.1520    -3.3260   -13.9610 o          1 T51      -0.608100
     31 CBJ          4.9240    -1.1470   -14.3030 ca         1 T51      -0.149600
     32 CAS          4.4580    -1.1000   -15.6170 ca         1 T51      -0.087000
     33 CAN          4.6480     0.0380   -16.3730 ca         1 T51      -0.127500
     34 CAR          5.5770    -0.0390   -13.7600 ca         1 T51      -0.087000
     35 CAM          5.7590     1.0940   -14.5270 ca         1 T51      -0.127500
     36 CBH          5.3000     1.1320   -15.8320 ca         1 T51      -0.054300
     37 CBB          5.5030     2.3710   -16.6620 c3         1 T51       0.203100
     38 NBR          6.7840     2.2780   -17.3750 n3         1 T51      -0.719600
     39 CAX          6.7560     1.1960   -18.3690 c3         1 T51       0.116300
     40 CAV          8.1310     1.0800   -19.0330 c3         1 T51       0.164300
     41 NBQ          8.4760     2.3620   -19.6640 n3         1 T51      -0.721600
     42 CAA          7.5500     2.6760   -20.7580 c3         1 T51       0.143100
     43 CAW          8.5040     3.4440   -18.6700 c3         1 T51       0.164300
     44 CAY          7.1290     3.5600   -18.0070 c3         1 T51       0.116300
     45 H1           0.1850    -0.0140    -2.4760 ha         1 T51       0.193000
     46 H2           3.8800     0.0070    -0.3380 ha         1 T51       0.169000
     47 H3           5.1260    -0.0070    -2.4630 ha         1 T51       0.151000
     48 H4           3.9140    -0.0270    -4.6070 ha         1 T51       0.139000
     49 H5           2.9140    -0.0750    -6.1240 hn         1 T51       0.329500
     50 H6          -0.4620     1.0030    -6.6580 ha         1 T51       0.172000
     51 H7          -1.6760     0.8240    -8.7950 ha         1 T51       0.139000
     52 H8          -0.6850    -0.4120   -10.6810 ha         1 T51       0.135000
     53 H9           1.5270    -1.4690   -10.4420 ha         1 T51       0.140000
     54 H10          3.6150    -1.4150   -10.2510 h1         1 T51       0.055200
     55 H11          2.8460    -2.9060    -9.6900 h1         1 T51       0.055200
     56 H12          4.8720    -1.9220    -7.0860 ha         1 T51       0.141000
     57 H13          7.0880    -2.8600    -6.5450 ha         1 T51       0.132000
     58 H14          8.3330    -4.1390    -8.2440 ha         1 T51       0.136000
     59 H15          7.3620    -4.4870   -10.4840 ha         1 T51       0.140000
     60 H16          5.4660    -4.4520   -11.8880 h1         1 T51       0.061200
     61 H17          3.9180    -3.8140   -11.3170 h1         1 T51       0.061200
     62 H18          5.6920    -1.6330   -11.8450 hn         1 T51       0.320500
     63 H19          3.9470    -1.9560   -16.0430 ha         1 T51       0.141500
     64 H20          4.2880     0.0750   -17.3940 ha         1 T51       0.137500
     65 H21          5.9370    -0.0670   -12.7390 ha         1 T51       0.141500
     66 H22          6.2670     1.9540   -14.1080 ha         1 T51       0.137500
     67 H23          5.5120     3.2410   -16.0170 h1         1 T51       0.042200
     68 H24          4.6960     2.4620   -17.3790 h1         1 T51       0.042200
     69 H26          6.5140     0.2620   -17.8770 h1         1 T51       0.040200
     70 H27          6.0100     1.4180   -19.1230 h1         1 T51       0.040200
     71 H28          8.1020     0.3040   -19.7870 h1         1 T51       0.062950
     72 H29          8.8730     0.8360   -18.2830 h1         1 T51       0.062950
     73 H31          7.8440     3.6090   -21.2240 h1         1 T51       0.032700
     74 H32          6.5450     2.7700   -20.3650 h1         1 T51       0.032700
     75 H33          7.5770     1.8820   -21.4940 h1         1 T51       0.032700
     76 H34          8.7460     4.3780   -19.1620 h1         1 T51       0.062950
     77 H35          9.2500     3.2220   -17.9170 h1         1 T51       0.062950
     78 H36          6.3870     3.8040   -18.7560 h1         1 T51       0.040200
     79 H37          7.1580     4.3370   -17.2520 h1         1 T51       0.040200
@<TRIPOS>BOND
     1     3     2 1
     2     6     7 ar
     3     6     4 ar
     4     7     8 ar
     5     2     4 1
     6     2     1 1
     7     4     5 ar
     8     8     9 ar
     9    24    23 ar
    10    24    25 ar
    11    23    22 ar
    12     5     9 ar
    13     9    10 1
    14    25    26 ar
    15    37    36 1
    16    37    38 1
    17    36    35 ar
    18    36    33 ar
    19    22    21 ar
    20    35    34 ar
    21    39    38 1
    22    39    40 1
    23    33    32 ar
    24    34    31 ar
    25    26    21 ar
    26    26    27 1
    27    10    11 2
    28    10    12 1
    29    38    44 1
    30    32    31 ar
    31    31    29 1
    32    28    29 1
    33    28    27 1
    34    21    20 1
    35    12    13 1
    36    29    30 2
    37    40    41 1
    38    44    43 1
    39    42    41 1
    40    19    20 1
    41    19    18 1
    42    41    43 1
    43    13    18 ar
    44    13    14 ar
    45    18    17 ar
    46    14    15 ar
    47    17    16 ar
    48    15    16 ar
    49     5    45 1
    50     6    46 1
    51     7    47 1
    52     8    48 1
    53    12    49 1
    54    14    50 1
    55    15    51 1
    56    16    52 1
    57    17    53 1
    58    20    54 1
    59    20    55 1
    60    22    56 1
    61    23    57 1
    62    24    58 1
    63    25    59 1
    64    27    60 1
    65    27    61 1
    66    28    62 1
    67    32    63 1
    68    33    64 1
    69    34    65 1
    70    35    66 1
    71    37    67 1
    72    37    68 1
    73    39    69 1
    74    39    70 1
    75    40    71 1
    76    40    72 1
    77    42    73 1
    78    42    74 1
    79    42    75 1
    80    43    76 1
    81    43    77 1
    82    44    78 1
    83    44    79 1
@<TRIPOS>SUBSTRUCTURE
     1 T51         1 TEMP              0 ****  ****    0 ROOT
