@<TRIPOS>MOLECULE
T51
   79    83     1     0     0
SMALL
bcc


@<TRIPOS>ATOM
      1 OAD          0.0000     0.0000     0.0000 o          1 T51      -0.445000
      2 NBS          1.2180     0.0000     0.0000 no         1 T51       1.046200
      3 OAE          1.8270     0.0000     1.0550 o          1 T51      -0.445000
      4 CBM          1.9590    -0.0070    -1.2820 ca         1 T51      -0.459200
      5 CAU          1.2690    -0.0140    -2.4760 ca         1 T51       0.054000
      6 CAT          3.3430    -0.0020    -1.2780 ca         1 T51       0.010000
      7 CAP          4.0420    -0.0090    -2.4720 ca         1 T51      -0.126000
      8 CBI          3.3650    -0.0210    -3.6740 ca         1 T51      -0.030000
      9 CBP          1.9680    -0.0220    -3.6830 ca         1 T51      -0.175600
     10 CBG          1.2350    -0.0280    -4.9670 c          1 T51       0.579700
     11 OAC          0.0190    -0.0270    -4.9720 o          1 T51      -0.630100
     12 NBD          1.9140    -0.0340    -6.1310 ns         1 T51      -0.012100
     13 CBN          1.2220    -0.1350    -7.3440 ca         1 T51      -0.130400
     14 CAO         -0.0230     0.4600    -7.4860 ca         1 T51      -0.066000
     15 CAI         -0.7040     0.3590    -8.6850 ca         1 T51      -0.120000
     16 CAJ         -0.1470    -0.3340    -9.7440 ca         1 T51      -0.064000
     17 CAQ          1.0930    -0.9290    -9.6100 ca         1 T51      -0.193000
     18 CBO          1.7850    -0.8280    -8.4140 ca         1 T51       0.119100
     19 OBE          3.0070    -1.4090    -8.2820 os         1 T51      -0.322900
     20 CBA          3.5220    -2.1040    -9.4200 c3         1 T51       0.262700
     21 CBL          4.8750    -2.6770    -9.0890 ca         1 T51      -0.089300
     22 CAL          5.4190    -2.4850    -7.8320 ca         1 T51      -0.088000
     23 CAH          6.6610    -3.0110    -7.5290 ca         1 T51      -0.091000
     24 CAG          7.3590    -3.7280    -8.4820 ca         1 T51      -0.100000
     25 CAK          6.8150    -3.9220    -9.7380 ca         1 T51      -0.077000
     26 CBK          5.5710    -3.4000   -10.0400 ca         1 T51      -0.119300
     27 CAZ          4.9780    -3.6110   -11.4090 c3         1 T51       0.107300
     28 NBC          5.1760    -2.4050   -12.2180 ns         1 T51      -0.206900
     29 CBF          4.7240    -2.3640   -13.4860 c          1 T51       0.595700
     30 OAB          4.1520    -3.3260   -13.9610 o          1 T51      -0.649100
     31 CBJ          4.9240    -1.1470   -14.3030 ca         1 T51      -0.159600
     32 CAS          4.4580    -1.1000   -15.6170 ca         1 T51      -0.059500
     33 CAN          4.6480     0.0380   -16.3730 ca         1 T51      -0.101500
     34 CAR          5.5770    -0.0390   -13.7600 ca         1 T51      -0.059500
     35 CAM          5.7590     1.0940   -14.5270 ca         1 T51      -0.101500
     36 CBH          5.3000     1.1320   -15.8320 ca         1 T51      -0.066300
     37 CBB          5.5030     2.3710   -16.6620 c3         1 T51       0.207100
     38 NBR          6.7840     2.2780   -17.3750 n3         1 T51      -0.529600
     39 CAX          6.7560     1.1960   -18.3690 c3         1 T51       0.100800
     40 CAV          8.1310     1.0800   -19.0330 c3         1 T51       0.158300
     41 NBQ          8.4760     2.3620   -19.6640 n3         1 T51      -0.542600
     42 CAA          7.5500     2.6760   -20.7580 c3         1 T51       0.168100
     43 CAW          8.5040     3.4440   -18.6700 c3         1 T51       0.158300
     44 CAY          7.1290     3.5600   -18.0070 c3         1 T51       0.100800
     45 H1           0.1850    -0.0140    -2.4760 ha         1 T51       0.156000
     46 H2           3.8800     0.0070    -0.3380 ha         1 T51       0.133000
     47 H3           5.1260    -0.0070    -2.4630 ha         1 T51       0.117000
     48 H4           3.9140    -0.0270    -4.6070 ha         1 T51       0.107000
     49 H5           2.9140    -0.0750    -6.1240 hn         1 T51       0.173500
     50 H6          -0.4620     1.0030    -6.6580 ha         1 T51       0.148000
     51 H7          -1.6760     0.8240    -8.7950 ha         1 T51       0.110000
     52 H8          -0.6850    -0.4120   -10.6810 ha         1 T51       0.104000
     53 H9           1.5270    -1.4690   -10.4420 ha         1 T51       0.122000
     54 H10          3.6150    -1.4150   -10.2510 h1         1 T51       0.017700
     55 H11          2.8460    -2.9060    -9.6900 h1         1 T51       0.017700
     56 H12          4.8720    -1.9220    -7.0860 ha         1 T51       0.113000
     57 H13          7.0880    -2.8600    -6.5450 ha         1 T51       0.104000
     58 H14          8.3330    -4.1390    -8.2440 ha         1 T51       0.107000
     59 H15          7.3620    -4.4870   -10.4840 ha         1 T51       0.112000
     60 H16          5.4660    -4.4520   -11.8880 h1         1 T51       0.032700
     61 H17          3.9180    -3.8140   -11.3170 h1         1 T51       0.032700
     62 H18          5.6920    -1.6330   -11.8450 hn         1 T51       0.185500
     63 H19          3.9470    -1.9560   -16.0430 ha         1 T51       0.114500
     64 H20          4.2880     0.0750   -17.3940 ha         1 T51       0.111000
     65 H21          5.9370    -0.0670   -12.7390 ha         1 T51       0.114500
     66 H22          6.2670     1.9540   -14.1080 ha         1 T51       0.111000
     67 H23          5.5120     3.2410   -16.0170 h1         1 T51       0.014200
     68 H24          4.6960     2.4620   -17.3790 h1         1 T51       0.014200
     69 H26          6.5140     0.2620   -17.8770 h1         1 T51       0.020200
     70 H27          6.0100     1.4180   -19.1230 h1         1 T51       0.020200
     71 H28          8.1020     0.3040   -19.7870 h1         1 T51       0.029450
     72 H29          8.8730     0.8360   -18.2830 h1         1 T51       0.029450
     73 H31          7.8440     3.6090   -21.2240 h1         1 T51       0.004367
     74 H32          6.5450     2.7700   -20.3650 h1         1 T51       0.004367
     75 H33          7.5770     1.8820   -21.4940 h1         1 T51       0.004367
     76 H34          8.7460     4.3780   -19.1620 h1         1 T51       0.029450
     77 H35          9.2500     3.2220   -17.9170 h1         1 T51       0.029450
     78 H36          6.3870     3.8040   -18.7560 h1         1 T51       0.020200
     79 H37          7.1580     4.3370   -17.2520 h1         1 T51       0.020200
@<TRIPOS>BOND
     1     1     2 1   
     2     2     3 1   
     3     2     4 1   
     4     4     5 ar  
     5     4     6 ar  
     6     5     9 ar  
     7     5    45 1   
     8     6     7 ar  
     9     6    46 1   
    10     7     8 ar  
    11     7    47 1   
    12     8     9 ar  
    13     8    48 1   
    14     9    10 1   
    15    10    11 2   
    16    10    12 1   
    17    12    13 1   
    18    12    49 1   
    19    13    14 ar  
    20    13    18 ar  
    21    14    15 ar  
    22    14    50 1   
    23    15    16 ar  
    24    15    51 1   
    25    16    17 ar  
    26    16    52 1   
    27    17    18 ar  
    28    17    53 1   
    29    18    19 1   
    30    19    20 1   
    31    20    21 1   
    32    20    54 1   
    33    20    55 1   
    34    21    22 ar  
    35    21    26 ar  
    36    22    23 ar  
    37    22    56 1   
    38    23    24 ar  
    39    23    57 1   
    40    24    25 ar  
    41    24    58 1   
    42    25    26 ar  
    43    25    59 1   
    44    26    27 1   
    45    27    28 1   
    46    27    60 1   
    47    27    61 1   
    48    28    29 1   
    49    28    62 1   
    50    29    30 2   
    51    29    31 1   
    52    31    32 ar  
    53    31    34 ar  
    54    32    33 ar  
    55    32    63 1   
    56    33    36 ar  
    57    33    64 1   
    58    34    35 ar  
    59    34    65 1   
    60    35    36 ar  
    61    35    66 1   
    62    36    37 1   
    63    37    38 1   
    64    37    67 1   
    65    37    68 1   
    66    38    39 1   
    67    38    44 1   
    68    39    40 1   
    69    39    69 1   
    70    39    70 1   
    71    40    41 1   
    72    40    71 1   
    73    40    72 1   
    74    41    42 1   
    75    41    43 1   
    76    42    73 1   
    77    42    74 1   
    78    42    75 1   
    79    43    44 1   
    80    43    76 1   
    81    43    77 1   
    82    44    78 1   
    83    44    79 1   
@<TRIPOS>SUBSTRUCTURE
     1 T51         1 TEMP              0 ****  ****    0 ROOT
