@<TRIPOS>MOLECULE
molecule
   79    83     1     0     0
SMALL
bcc


@<TRIPOS>ATOM
      1 OAD          0.0000     0.0000     0.0000 o          1 T53      -0.199500
      2 NBR          1.2180     0.0000     0.0000 no         1 T53       0.294200
      3 OAE          1.8270     0.0000     1.0550 o          1 T53      -0.199500
      4 CBM          1.9580    -0.0060    -1.2820 ca         1 T53      -0.165200
      5 CAU          3.3380    -0.0120    -1.2800 ca         1 T53      -0.013000
      6 CAM          1.2650    -0.0120    -2.4790 ca         1 T53      -0.050000
      7 CAI          1.9480    -0.0170    -3.6820 ca         1 T53      -0.142000
      8 CAL          3.3280    -0.0180    -3.6950 ca         1 T53      -0.067000
      9 CBL          4.0340    -0.0180    -2.4900 ca         1 T53      -0.151600
     10 CBG          5.5120    -0.0220    -2.4960 c          1 T53       0.673700
     11 OAC          6.1240    -0.0210    -1.4450 o          1 T53      -0.589100
     12 NBD          6.1810    -0.0290    -3.6660 ns         1 T53      -0.458100
     13 CBN          7.5790     0.0610    -3.6740 ca         1 T53       0.027600
     14 CAP          8.3190    -0.5340    -2.6620 ca         1 T53      -0.092000
     15 CAF          9.6980    -0.4450    -2.6720 ca         1 T53      -0.147000
     16 CAG         10.3430     0.2370    -3.6870 ca         1 T53      -0.103000
     17 CAS          9.6120     0.8330    -4.6990 ca         1 T53      -0.206000
     18 CBO          8.2290     0.7420    -4.7000 ca         1 T53       0.107100
     19 OBE          7.5100     1.3280    -5.6930 os         1 T53      -0.339900
     20 CBA          8.2430     2.0200    -6.7060 c3         1 T53       0.191700
     21 CBJ          7.2850     2.5980    -7.7140 ca         1 T53      -0.102300
     22 CAT          6.7790     3.8720    -7.5350 ca         1 T53      -0.089000
     23 CAK          6.9140     1.8570    -8.8210 ca         1 T53      -0.099000
     24 CAH          6.0350     2.3880    -9.7470 ca         1 T53      -0.135000
     25 CAJ          5.5250     3.6600    -9.5640 ca         1 T53      -0.101000
     26 CBH          5.9000     4.4030    -8.4600 ca         1 T53      -0.122300
     27 CAV          5.3480     5.7920    -8.2650 c3         1 T53       0.162300
     28 NBC          6.2320     6.7640    -8.9130 ns         1 T53      -0.584900
     29 CBF          5.9370     8.0780    -8.8680 c          1 T53       0.672700
     30 OAB          4.9370     8.4570    -8.2900 o          1 T53      -0.608100
     31 CBK          6.8300     9.0590    -9.5220 ca         1 T53      -0.147600
     32 CAR          6.5260    10.4210    -9.4770 ca         1 T53      -0.087000
     33 CAO          7.3640    11.3310   -10.0890 ca         1 T53      -0.128000
     34 CAQ          7.9820     8.6280   -10.1810 ca         1 T53      -0.087000
     35 CAN          8.8130     9.5490   -10.7840 ca         1 T53      -0.128000
     36 CBI          8.5010    10.8960   -10.7450 ca         1 T53      -0.055300
     37 CBB          9.4140    11.8960   -11.4070 c3         1 T53       0.204100
     38 NBQ          8.9990    12.0910   -12.8020 n3         1 T53      -0.718600
     39 CAY          9.7090    13.2260   -13.4100 c3         1 T53       0.116300
     40 CAW          9.1920    13.4440   -14.8340 c3         1 T53       0.164300
     41 NBP          9.3950    12.2190   -15.6180 n3         1 T53      -0.721600
     42 CAA         10.8250    11.9230   -15.7740 c3         1 T53       0.143100
     43 CAX          8.6850    11.0840   -15.0110 c3         1 T53       0.164300
     44 CAZ          9.2020    10.8650   -13.5870 c3         1 T53       0.116300
     45 H1           3.8790    -0.0110    -0.3420 ha         1 T53       0.192000
     46 H2           0.1810    -0.0110    -2.4750 ha         1 T53       0.169000
     47 H3           1.3990    -0.0200    -4.6160 ha         1 T53       0.152000
     48 H4           3.8620    -0.0230    -4.6370 ha         1 T53       0.141000
     49 H5           5.6750     0.0130    -4.5290 hn         1 T53       0.332500
     50 H6           7.8170    -1.0680    -1.8650 ha         1 T53       0.172000
     51 H7          10.2750    -0.9100    -1.8820 ha         1 T53       0.138000
     52 H8          11.4240     0.3060    -3.6890 ha         1 T53       0.132000
     53 H9          10.1210     1.3640    -5.4940 ha         1 T53       0.136000
     54 H10          8.8170     2.8190    -6.2530 h1         1 T53       0.044200
     55 H11          8.9150     1.3280    -7.2010 h1         1 T53       0.044200
     56 H12          7.0730     4.4550    -6.6700 ha         1 T53       0.142000
     57 H13          7.3140     0.8600    -8.9640 ha         1 T53       0.136000
     58 H14          5.7430     1.8060   -10.6130 ha         1 T53       0.137000
     59 H15          4.8360     4.0760   -10.2890 ha         1 T53       0.139000
     60 H16          4.3600     5.8530    -8.7060 h1         1 T53       0.061700
     61 H17          5.2850     6.0110    -7.2060 h1         1 T53       0.061700
     62 H18          7.0700     6.4550    -9.3660 hn         1 T53       0.317500
     63 H19          5.6360    10.7620    -8.9630 ha         1 T53       0.141500
     64 H20          7.1280    12.3880   -10.0590 ha         1 T53       0.137000
     65 H21          8.2270     7.5730   -10.2120 ha         1 T53       0.141500
     66 H22          9.7060     9.2150   -11.2980 ha         1 T53       0.137000
     67 H23          9.3580    12.8400   -10.8780 h1         1 T53       0.041700
     68 H24         10.4320    11.5280   -11.3810 h1         1 T53       0.041700
     69 H26         10.7700    13.0120   -13.4410 h1         1 T53       0.039450
     70 H27          9.5310    14.1180   -12.8220 h1         1 T53       0.039450
     71 H28          9.7360    14.2610   -15.2930 h1         1 T53       0.063200
     72 H29          8.1350    13.6810   -14.8010 h1         1 T53       0.063200
     73 H31         11.3180    12.7630   -16.2490 h1         1 T53       0.032700
     74 H32         10.9470    11.0390   -16.3870 h1         1 T53       0.032700
     75 H33         11.2660    11.7500   -14.7990 h1         1 T53       0.032700
     76 H34          7.6230    11.2970   -14.9800 h1         1 T53       0.063200
     77 H35          8.8630    10.1910   -15.5990 h1         1 T53       0.063200
     78 H36         10.2590    10.6290   -13.6200 h1         1 T53       0.039450
     79 H37          8.6580    10.0490   -13.1270 h1         1 T53       0.039450
@<TRIPOS>BOND
     1    42    41 1
     2    16    15 ar
     3    16    17 ar
     4    15    14 ar
     5    17    18 ar
     6    41    40 1
     7    41    43 1
     8    40    39 1
     9    43    44 1
    10    14    13 ar
    11    18    13 ar
    12    18    19 1
    13    13    12 1
    14    39    38 1
    15    20    19 1
    16    20    21 1
    17    37    38 1
    18    37    36 1
    19    44    38 1
    20    35    36 ar
    21    35    34 ar
    22    12    10 1
    23    36    33 ar
    24    11    10 2
    25    21    22 ar
    26    21    23 ar
    27    10     9 1
    28    34    31 ar
    29    22    26 ar
    30    33    32 ar
    31    23    24 ar
    32    31    32 ar
    33    31    29 1
    34     9     5 ar
    35     9     8 ar
    36    28    29 1
    37    28    27 1
    38    26    25 ar
    39    26    27 1
    40    24    25 ar
    41     5     4 ar
    42    29    30 2
    43     3     2 1
    44     8     7 ar
    45     4     2 1
    46     4     6 ar
    47     2     1 1
    48     7     6 ar
    49     5    45 1
    50     6    46 1
    51     7    47 1
    52     8    48 1
    53    12    49 1
    54    14    50 1
    55    15    51 1
    56    16    52 1
    57    17    53 1
    58    20    54 1
    59    20    55 1
    60    22    56 1
    61    23    57 1
    62    24    58 1
    63    25    59 1
    64    27    60 1
    65    27    61 1
    66    28    62 1
    67    32    63 1
    68    33    64 1
    69    34    65 1
    70    35    66 1
    71    37    67 1
    72    37    68 1
    73    39    69 1
    74    39    70 1
    75    40    71 1
    76    40    72 1
    77    42    73 1
    78    42    74 1
    79    42    75 1
    80    43    76 1
    81    43    77 1
    82    44    78 1
    83    44    79 1
@<TRIPOS>SUBSTRUCTURE
     1 T53         1 TEMP              0 ****  ****    0 ROOT
