@<TRIPOS>MOLECULE
molecule
   31    30     1     0     0
SMALL
bcc


@<TRIPOS>ATOM
      1 CAD          0.0000     0.0000     0.0000 c3         1 T55      -0.087100
      2 CAE          1.5300     0.0000     0.0000 c3         1 T55      -0.078700
      3 CAG          2.0390     0.0000     1.4440 c3         1 T55      -0.077400
      4 CAH          1.6350     1.3070     2.1270 c3         1 T55      -0.084400
      5 CAI          2.1430     1.3070     3.5690 c3         1 T55      -0.081400
      6 CAJ          1.7380     2.6140     4.2540 c3         1 T55      -0.088400
      7 CAK          2.2470     2.6140     5.6960 c3         1 T55      -0.063400
      8 CAL          1.8420     3.9210     6.3810 c3         1 T55      -0.183400
      9 CAF          2.0410    -1.2490    -0.7200 c3         1 T55      -0.087100
     10 C            2.3440     3.9220     7.8020 c          1 T55       0.891600
     11 O            2.9620     2.9740     8.2240 o          1 T55      -0.858300
     12 OXT          2.1040     4.9750     8.5980 o          1 T55      -0.858300
     13 HAL1         2.2740     4.7580     5.8450 hc         1 T55       0.026700
     14 HAL2         0.7630     4.0100     6.3790 hc         1 T55       0.026700
     15 HAK1         1.8160     1.7780     6.2320 hc         1 T55       0.044700
     16 HAK2         3.3270     2.5260     5.6980 hc         1 T55       0.044700
     17 HAJ1         0.6590     2.7020     4.2520 hc         1 T55       0.028700
     18 HAJ2         2.1700     3.4510     3.7190 hc         1 T55       0.028700
     19 HAI1         1.7110     0.4700     4.1050 hc         1 T55       0.038700
     20 HAI2         3.2230     1.2180     3.5720 hc         1 T55       0.038700
     21 HAH1         2.0680     2.1430     1.5920 hc         1 T55       0.036700
     22 HAH2         0.5550     1.3960     2.1250 hc         1 T55       0.036700
     23 HAG1         1.6070    -0.8360     1.9790 hc         1 T55       0.039700
     24 HAG2         3.1190    -0.0890     1.4460 hc         1 T55       0.039700
     25 HAE          1.8910     0.8880    -0.5050 hc         1 T55       0.046700
     26 HAD1        -0.3610     1.0170     0.0910 hc         1 T55       0.030033
     27 HAD2        -0.3610    -0.4300    -0.9270 hc         1 T55       0.030033
     28 HAD3        -0.3610    -0.5880     0.8350 hc         1 T55       0.030033
     29 HAF1         1.6680    -2.1340    -0.2180 hc         1 T55       0.030033
     30 HAF2         1.6930    -1.2430    -1.7460 hc         1 T55       0.030033
     31 HAF3         3.1240    -1.2570    -0.7060 hc         1 T55       0.030033
@<TRIPOS>BOND
     1    12    10 1
     2     8    10 1
     3     8     7 1
     4    10    11 1
     5     7     6 1
     6     6     5 1
     7     5     4 1
     8     4     3 1
     9     3     2 1
    10     2     1 1
    11     2     9 1
    12     8    13 1
    13     8    14 1
    14     7    15 1
    15     7    16 1
    16     6    17 1
    17     6    18 1
    18     5    19 1
    19     5    20 1
    20     4    21 1
    21     4    22 1
    22     3    23 1
    23     3    24 1
    24     2    25 1
    25     1    26 1
    26     1    27 1
    27     1    28 1
    28     9    29 1
    29     9    30 1
    30     9    31 1
@<TRIPOS>SUBSTRUCTURE
     1 T55         1 TEMP              0 ****  ****    0 ROOT
