@<TRIPOS>MOLECULE
T55
   31    30     1     0     0
SMALL
bcc


@<TRIPOS>ATOM
      1 CAD        -0.0370   -0.0980   -0.1500 c3        1 T55     -0.088100
      2 CAE         1.4660   -0.0530    0.0330 c3        1 T55     -0.068700
      3 CAG         1.8460   -0.0380    1.5070 c3        1 T55     -0.075400
      4 CAH         1.6070    1.3100    2.1530 c3        1 T55     -0.079400
      5 CAI         2.0200    1.3030    3.6090 c3        1 T55     -0.079400
      6 CAJ         1.7830    2.6480    4.2610 c3        1 T55     -0.078400
      7 CAK         2.2030    2.6420    5.7160 c3        1 T55     -0.065400
      8 CAL         1.9540    3.9740    6.3790 c3        1 T55     -0.193400
      9 CAF         2.1100   -1.2360   -0.6620 c3        1 T55     -0.088100
     10 C           2.5530    4.0150    7.7960 c         1 T55      0.907600
     11 O           3.7340    3.5940    7.9660 o         1 T55     -0.853800
     12 OXT         1.8360    4.4900    8.7250 o         1 T55     -0.853800
     13 HAL1        0.8560    4.1830    6.4350 hc        1 T55      0.018700
     14 HAL2        2.4300    4.7940    5.7830 hc        1 T55      0.018700
     15 HAK1        1.6410    1.8410    6.2640 hc        1 T55      0.043700
     16 HAK2        3.2960    2.3970    5.8020 hc        1 T55      0.043700
     17 HAJ1        0.6960    2.9150    4.1840 hc        1 T55      0.025700
     18 HAJ2        2.3560    3.4380    3.7080 hc        1 T55      0.025700
     19 HAI1        3.1070    1.0350    3.6920 hc        1 T55      0.036700
     20 HAI2        1.4440    0.5130    4.1600 hc        1 T55      0.036700
     21 HAH1        2.1860    2.0990    1.6040 hc        1 T55      0.034700
     22 HAH2        0.5220    1.5830    2.0740 hc        1 T55      0.034700
     23 HAG1        1.2620   -0.8260    2.0510 hc        1 T55      0.038200
     24 HAG2        2.9320   -0.3030    1.6080 hc        1 T55      0.038200
     25 HAE         1.8530    0.8920   -0.4440 hc        1 T55      0.044700
     26 HAD1       -0.2960   -0.0890   -1.2360 hc        1 T55      0.029200
     27 HAD2       -0.4600   -1.0260    0.3060 hc        1 T55      0.029200
     28 HAD3       -0.5160    0.7850    0.3370 hc        1 T55      0.029200
     29 HAF1        1.8220   -1.2580   -1.7400 hc        1 T55      0.029200
     30 HAF2        3.2230   -1.1690   -0.5940 hc        1 T55      0.029200
     31 HAF3        1.7840   -2.1920   -0.1880 hc        1 T55      0.029200
@<TRIPOS>BOND
     1    1    2 1   
     2    1   26 1   
     3    1   27 1   
     4    1   28 1   
     5    2    3 1   
     6    2    9 1   
     7    2   25 1   
     8    3    4 1   
     9    3   23 1   
    10    3   24 1   
    11    4    5 1   
    12    4   21 1   
    13    4   22 1   
    14    5    6 1   
    15    5   19 1   
    16    5   20 1   
    17    6    7 1   
    18    6   17 1   
    19    6   18 1   
    20    7    8 1   
    21    7   15 1   
    22    7   16 1   
    23    8   10 1   
    24    8   13 1   
    25    8   14 1   
    26    9   29 1   
    27    9   30 1   
    28    9   31 1   
    29   10   11 1   
    30   10   12 1   
@<TRIPOS>SUBSTRUCTURE
     1 T55         1 TEMP              0 ****  ****    0 ROOT
