@<TRIPOS>MOLECULE
molecule
   83    83     1     0     0
SMALL
bcc


@<TRIPOS>ATOM
      1 OAA          0.0000     0.0000     0.0000 o          1 T57      -0.883800
      2 CBJ          1.3420     0.0000     0.0000 c          1 T57       0.893600
      3 OAI          1.9470     0.0000     1.0460 o          1 T57      -0.883800
      4 CAZ          2.0950    -0.0010    -1.3060 c3         1 T57      -0.175400
      5 CBC          3.6000    -0.0010    -1.0280 c3         1 T57      -0.046400
      6 CBU          4.3630    -0.0010    -2.3540 c3         1 T57       0.121500
      7 CBM          5.8400     0.1220    -2.0820 c          1 T57       0.893600
      8 OAL          6.3160     1.1980    -1.4330 o          1 T57      -0.836800
      9 OAD          6.5960    -0.7460    -2.4470 o          1 T57      -0.836800
     10 NBH          4.1010    -1.2570    -3.0690 n7         1 T57      -0.906300
     11 PBV          4.0480    -1.0030    -4.7320 p5         1 T57       1.319700
     12 OAM          3.7820    -2.2860    -5.4190 o          1 T57      -0.848500
     13 OAH          5.4600    -0.4110    -5.2290 o          1 T57      -0.848500
     14 OBI          2.8750     0.0440    -5.0780 os         1 T57      -0.586200
     15 CAX          1.4870    -0.2730    -4.9550 c3         1 T57       0.201400
     16 CAV          0.6490     0.9400    -5.3620 c3         1 T57      -0.089400
     17 CB          -0.8380     0.6010    -5.2300 c3         1 T57      -0.082400
     18 CA          -1.6760     1.8140    -5.6360 c3         1 T57       0.014700
     19 C           -3.1360     1.4430    -5.6240 c          1 T57       0.895600
     20 OXT         -3.5850     0.4570    -6.4180 o          1 T57      -0.872300
     21 O           -3.9030     2.0310    -4.8990 o          1 T57      -0.872300
     22 N           -1.4420     2.9090    -4.6910 ns         1 T57      -0.538900
     23 CBO         -1.6380     4.1850    -5.0760 c          1 T57       0.663100
     24 OAF         -2.0070     4.4280    -6.2060 o          1 T57      -0.660100
     25 CBA         -1.3980     5.3110    -4.1040 c3         1 T57      -0.166400
     26 CBD         -1.6910     6.6480    -4.7890 c3         1 T57      -0.058400
     27 CBT         -1.4470     7.7910    -3.8000 c3         1 T57       0.002700
     28 CBL         -1.6160     9.1100    -4.5080 c          1 T57       0.895600
     29 OAK         -0.8340     9.4150    -5.5560 o          1 T57      -0.866800
     30 OAC         -2.4550     9.8940    -4.1320 o          1 T57      -0.866800
     31 NBG         -2.4100     7.7000    -2.7000 ns         1 T57      -0.530900
     32 CBN         -2.1140     8.2340    -1.5000 c          1 T57       0.663100
     33 OAE         -1.0510     8.7910    -1.3290 o          1 T57      -0.642100
     34 CAY         -3.1050     8.1400    -0.3680 c3         1 T57      -0.162400
     35 CAU         -2.5270     8.8220     0.8740 c3         1 T57      -0.062400
     36 CAS         -3.5320     8.7260     2.0230 c3         1 T57      -0.082400
     37 CAT         -2.9540     9.4070     3.2650 c3         1 T57      -0.100400
     38 CAW         -3.9600     9.3120     4.4130 c3         1 T57       0.108000
     39 NBE         -3.4070     9.9640     5.6030 ns         1 T57      -0.577900
     40 CBP         -4.1220    10.0040     6.7450 c          1 T57       0.668700
     41 OAG         -5.2260     9.4970     6.7880 o          1 T57      -0.638100
     42 CBR         -3.5630    10.6620     7.9440 ca         1 T57      -0.188600
     43 CAQ         -2.2970    11.2480     7.8960 ca         1 T57      -0.072000
     44 CAO         -1.7800    11.8600     9.0180 ca         1 T57      -0.181000
     45 CBQ         -2.5160    11.8930    10.1930 ca         1 T57       0.075900
     46 FAN         -2.0050    12.4950    11.2890 f          1 T57      -0.167900
     47 CAP         -3.7730    11.3130    10.2460 ca         1 T57      -0.181000
     48 CAR         -4.3020    10.7030     9.1280 ca         1 T57      -0.072000
     49 H2           1.8320     0.8830    -1.8740 hc         1 T57       0.039200
     50 H3           1.8320    -0.8860    -1.8730 hc         1 T57       0.039200
     51 H4           3.8620     0.8840    -0.4600 hc         1 T57       0.037200
     52 H5           3.8620    -0.8860    -0.4600 hc         1 T57       0.037200
     53 H6           4.0350     0.8350    -2.9590 h1         1 T57       0.067700
     54 H8           4.4490    -2.1220    -2.7050 hn         1 T57       0.401800
     55 H10          1.2660    -0.5360    -3.9280 h1         1 T57       0.020700
     56 H11          1.2490    -1.1090    -5.6020 h1         1 T57       0.020700
     57 H12          0.8690     1.2030    -6.3890 hc         1 T57       0.039200
     58 H13          0.8870     1.7770    -4.7160 hc         1 T57       0.039200
     59 H14         -1.0760    -0.2360    -5.8760 hc         1 T57       0.053200
     60 H15         -1.0580     0.3370    -4.2020 hc         1 T57       0.053200
     61 H16         -1.3930     2.1310    -6.6330 h1         1 T57       0.062700
     62 H18         -1.1780     2.7070    -3.7470 hn         1 T57       0.317500
     63 H19         -0.3650     5.2920    -3.7770 hc         1 T57       0.052200
     64 H20         -2.0500     5.1930    -3.2470 hc         1 T57       0.052200
     65 H21         -1.0380     6.7650    -5.6450 hc         1 T57       0.064700
     66 H22         -2.7230     6.6670    -5.1160 hc         1 T57       0.064700
     67 H23         -0.4400     7.7190    -3.4060 h1         1 T57       0.077700
     68 H25         -3.3010     7.2700    -2.8500 hn         1 T57       0.302500
     69 H26         -3.3040     7.0980    -0.1480 hc         1 T57       0.049700
     70 H27         -4.0270     8.6310    -0.6540 hc         1 T57       0.049700
     71 H28         -2.3280     9.8630     0.6550 hc         1 T57       0.057200
     72 H29         -1.6050     8.3300     1.1600 hc         1 T57       0.057200
     73 H30         -4.4540     9.2180     1.7380 hc         1 T57       0.038700
     74 H31         -3.7310     7.6840     2.2430 hc         1 T57       0.038700
     75 H32         -2.7540    10.4490     3.0460 hc         1 T57       0.045200
     76 H33         -2.0320     8.9150     3.5510 hc         1 T57       0.045200
     77 H34         -4.8810     9.8040     4.1280 h1         1 T57       0.050700
     78 H35         -4.1600     8.2700     4.6330 h1         1 T57       0.050700
     79 H36         -2.4970    10.3800     5.5680 hn         1 T57       0.311500
     80 H37         -1.7220    11.2220     6.9780 ha         1 T57       0.140000
     81 H38         -0.7980    12.3150     8.9810 ha         1 T57       0.126500
     82 H39         -4.3450    11.3440    11.1660 ha         1 T57       0.126500
     83 H40         -5.2850    10.2500     9.1710 ha         1 T57       0.140000
@<TRIPOS>BOND
     1     9     7 1
     2     3     2 1
     3    30    28 1
     4     2     1 1
     5     2     4 1
     6     7     8 1
     7     7     6 1
     8    28    29 1
     9    28    27 1
    10     4     5 1
    11     5     6 1
    12     6    10 1
    13    27    26 1
    14    27    31 1
    15    26    25 1
    16    12    11 1
    17    17    16 1
    18    17    18 1
    19    10    11 1
    20    33    32 2
    21    16    15 1
    22    15    14 1
    23    31    32 1
    24    22    18 1
    25    22    23 1
    26    25    23 1
    27    32    34 1
    28    11    14 1
    29    11    13 1
    30    18    19 1
    31    23    24 2
    32    34    35 1
    33    19    21 1
    34    19    20 1
    35    35    36 1
    36    36    37 1
    37    37    38 1
    38    38    39 1
    39    39    40 1
    40    43    44 ar
    41    43    42 ar
    42    44    45 ar
    43    40    42 1
    44    40    41 2
    45    42    48 ar
    46    45    46 1
    47    45    47 ar
    48    48    47 ar
    49     4    49 1
    50     4    50 1
    51     5    51 1
    52     5    52 1
    53     6    53 1
    54    10    54 1
    55    15    55 1
    56    15    56 1
    57    16    57 1
    58    16    58 1
    59    17    59 1
    60    17    60 1
    61    18    61 1
    62    22    62 1
    63    25    63 1
    64    25    64 1
    65    26    65 1
    66    26    66 1
    67    27    67 1
    68    31    68 1
    69    34    69 1
    70    34    70 1
    71    35    71 1
    72    35    72 1
    73    36    73 1
    74    36    74 1
    75    37    75 1
    76    37    76 1
    77    38    77 1
    78    38    78 1
    79    39    79 1
    80    43    80 1
    81    44    81 1
    82    47    82 1
    83    48    83 1
@<TRIPOS>SUBSTRUCTURE
     1 T57         1 TEMP              0 ****  ****    0 ROOT
