@<TRIPOS>MOLECULE
T57
   87    87     1     0     0
SMALL
bcc


@<TRIPOS>ATOM
      1 OAA         0.2210    6.1200   -1.4500 oh        1 T57     -0.610100
      2 CBJ         0.8620    6.2520   -0.2630 c         1 T57      0.675100
      3 OAI         0.1780    6.6160    0.7060 o         1 T57     -0.621000
      4 CAZ         2.3310    5.9650   -0.3250 c3        1 T57     -0.161400
      5 CBC         2.8760    5.5190    1.0130 c3        1 T57     -0.078400
      6 CBU         2.9090    4.0130    1.2860 c3        1 T57     -0.048500
      7 CBM         2.6730    3.8350    2.8400 c         1 T57      0.915600
      8 OAL         3.3660    4.5380    3.6100 o         1 T57     -0.805800
      9 OAD         1.7650    3.0270    3.1880 o         1 T57     -0.805800
     10 NBH         1.9470    3.1910    0.5180 n4        1 T57     -0.755100
     11 PBV         2.7090    2.4130   -0.8450 p5        1 T57      1.342700
     12 OAM         4.1080    2.0960   -0.5530 o         1 T57     -0.785500
     13 OAH         2.1990    3.1840   -2.0110 o         1 T57     -0.785500
     14 OBI         1.7950    1.0380   -0.8730 os        1 T57     -0.585200
     15 CAX         1.3770    0.5560   -2.1160 c3        1 T57      0.184400
     16 CAV        -0.1450    0.4480   -2.2360 c3        1 T57     -0.115400
     17 CB         -0.9570    1.3750   -1.3650 c3        1 T57     -0.083400
     18 CA         -1.3890    2.7120   -1.9780 c3        1 T57      0.023500
     19 C          -1.7710    3.6310   -0.7900 c         1 T57      0.909600
     20 OXT        -2.9830    3.7540   -0.4740 o         1 T57     -0.831800
     21 O          -0.8440    4.2270   -0.1540 o         1 T57     -0.831800
     22 N          -0.3630    3.3810   -2.8390 n4        1 T57     -0.673800
     23 CBO        -0.9160    3.8070   -4.1740 c         1 T57      0.568100
     24 OAF        -1.3120    2.8990   -4.8980 o         1 T57     -0.479100
     25 CBA        -0.8900    5.2760   -4.4560 c3        1 T57     -0.170400
     26 CBD        -1.9310    5.6650   -5.4890 c3        1 T57     -0.071400
     27 CBT        -2.2400    7.1640   -5.4100 c3        1 T57     -0.061300
     28 CBL        -2.6180    7.6600   -6.8700 c         1 T57      0.921600
     29 OAK        -1.7480    7.4480   -7.7510 o         1 T57     -0.811300
     30 OAC        -3.7290    8.2290   -7.0330 o         1 T57     -0.811300
     31 NBG        -3.2780    7.4990   -4.4580 n         1 T57     -0.508900
     32 CBN        -3.0510    7.8170   -3.1520 c         1 T57      0.652100
     33 OAE        -1.9720    7.5380   -2.5640 o         1 T57     -0.711100
     34 CAY        -4.1940    8.4610   -2.3760 c3        1 T57     -0.156400
     35 CAU        -3.6910    9.2830   -1.2060 c3        1 T57     -0.068400
     36 CAS        -3.8310    8.5830    0.1300 c3        1 T57     -0.069400
     37 CAT        -2.9290    7.3710    0.2350 c3        1 T57     -0.106400
     38 CAW        -2.9840    6.8300    1.6580 c3        1 T57      0.131800
     39 NBE        -2.4000    5.4660    1.7910 n4        1 T57     -0.683800
     40 CBP        -2.6770    4.9410    3.1650 c         1 T57      0.580700
     41 OAG        -3.7480    4.3570    3.3130 o         1 T57     -0.469100
     42 CBR        -1.6900    5.2240    4.2130 ca        1 T57     -0.220600
     43 CAQ        -0.3260    4.9730    4.0380 ca        1 T57     -0.045000
     44 CAO         0.5700    5.2090    5.0800 ca        1 T57     -0.167000
     45 CBQ         0.0910    5.7140    6.3010 ca        1 T57      0.165900
     46 FAN         0.9450    5.9610    7.3190 f         1 T57     -0.128900
     47 CAP        -1.2880    5.9620    6.4820 ca        1 T57     -0.167000
     48 CAR        -2.1700    5.7040    5.4450 ca        1 T57     -0.045000
     49 H2          2.8300    6.9250   -0.6330 hc        1 T57      0.098700
     50 H3          2.5310    5.2120   -1.1410 hc        1 T57      0.098700
     51 H4          2.2890    6.0220    1.8330 hc        1 T57      0.081700
     52 H5          3.9360    5.8750    1.1170 hc        1 T57      0.081700
     53 H6          3.9410    3.6030    1.0650 hx        1 T57      0.129700
     54 H8          1.5540    2.5080    1.1900 hn        1 T57      0.466300
     55 H10         1.7940    1.2000   -2.9420 h1        1 T57      0.039700
     56 H11         1.8050   -0.4830   -2.2310 h1        1 T57      0.039700
     57 H12        -0.4260    0.5760   -3.3160 hc        1 T57      0.052200
     58 H13        -0.4270   -0.6020   -1.9510 hc        1 T57      0.052200
     59 H14        -1.9200    0.8610   -1.0890 hc        1 T57      0.074700
     60 H15        -0.4160    1.5640   -0.4000 hc        1 T57      0.074700
     61 H16        -2.3060    2.5380   -2.6160 hx        1 T57      0.105700
     62 H18         0.4320    2.7410   -3.0060 hn        1 T57      0.488800
     63 H19        -1.0480    5.8690   -3.5080 hc        1 T57      0.114700
     64 H20         0.1400    5.5300   -4.8340 hc        1 T57      0.114700
     65 H21        -1.5330    5.4550   -6.5200 hc        1 T57      0.073700
     66 H22        -2.8610    5.0540   -5.3550 hc        1 T57      0.073700
     67 H23        -1.2930    7.7090   -5.1250 h1        1 T57      0.057700
     68 H25        -4.1110    7.8460   -4.8990 hn        1 T57      0.338500
     69 H26        -4.8690    7.6380   -2.0220 hc        1 T57      0.064200
     70 H27        -4.7960    9.1220   -3.0550 hc        1 T57      0.064200
     71 H28        -2.6130    9.5530   -1.3690 hc        1 T57      0.055200
     72 H29        -4.2750   10.2410   -1.1600 hc        1 T57      0.055200
     73 H30        -4.8990    8.2730    0.2850 hc        1 T57      0.034700
     74 H31        -3.5720    9.3120    0.9450 hc        1 T57      0.034700
     75 H32        -3.2530    6.5920   -0.5090 hc        1 T57      0.090700
     76 H33        -1.8710    7.6470   -0.0290 hc        1 T57      0.090700
     77 H34        -2.4150    7.5190    2.3450 hx        1 T57      0.078200
     78 H35        -4.0560    6.7700    2.0020 hx        1 T57      0.078200
     79 H36        -1.3830    5.4840    1.5760 hn        1 T57      0.506300
     80 H37         0.0760    4.5410    3.1000 ha        1 T57      0.164500
     81 H38         1.6470    4.9680    4.9340 ha        1 T57      0.191500
     82 H39        -1.6500    6.3460    7.4460 ha        1 T57      0.191500
     83 H40        -3.2500    5.8660    5.5850 ha        1 T57      0.164500
     84 HBH2        1.1550    3.7700    0.2190 hn        1 T57      0.466300
     85 H24         0.0350    4.1950   -2.3310 hn        1 T57      0.488800
     86 HBG2       -0.7280    6.3300   -1.3410 ho        1 T57      0.474000
     87 HBE2       -2.8380    4.8340    1.0760 hn        1 T57      0.506300
@<TRIPOS>BOND
     1    1    2 1   
     2    1   86 1   
     3    2    3 2   
     4    2    4 1   
     5    4    5 1   
     6    4   49 1   
     7    4   50 1   
     8    5    6 1   
     9    5   51 1   
    10    5   52 1   
    11    6    7 1   
    12    6   10 1   
    13    6   53 1   
    14    7    8 1   
    15    7    9 1   
    16   10   11 1   
    17   10   54 1   
    18   10   84 1   
    19   11   12 1   
    20   11   13 1   
    21   11   14 1   
    22   14   15 1   
    23   15   16 1   
    24   15   55 1   
    25   15   56 1   
    26   16   17 1   
    27   16   57 1   
    28   16   58 1   
    29   17   18 1   
    30   17   59 1   
    31   17   60 1   
    32   18   19 1   
    33   18   22 1   
    34   18   61 1   
    35   19   20 1   
    36   19   21 1   
    37   22   23 1   
    38   22   62 1   
    39   22   85 1   
    40   23   24 2   
    41   23   25 1   
    42   25   26 1   
    43   25   63 1   
    44   25   64 1   
    45   26   27 1   
    46   26   65 1   
    47   26   66 1   
    48   27   28 1   
    49   27   31 1   
    50   27   67 1   
    51   28   29 1   
    52   28   30 1   
    53   31   32 1   
    54   31   68 1   
    55   32   33 2   
    56   32   34 1   
    57   34   35 1   
    58   34   69 1   
    59   34   70 1   
    60   35   36 1   
    61   35   71 1   
    62   35   72 1   
    63   36   37 1   
    64   36   73 1   
    65   36   74 1   
    66   37   38 1   
    67   37   75 1   
    68   37   76 1   
    69   38   39 1   
    70   38   77 1   
    71   38   78 1   
    72   39   40 1   
    73   39   79 1   
    74   39   87 1   
    75   40   41 2   
    76   40   42 1   
    77   42   43 ar  
    78   42   48 ar  
    79   43   44 ar  
    80   43   80 1   
    81   44   45 ar  
    82   44   81 1   
    83   45   46 1   
    84   45   47 ar  
    85   47   48 ar  
    86   47   82 1   
    87   48   83 1   
@<TRIPOS>SUBSTRUCTURE
     1 T57         1 TEMP              0 ****  ****    0 ROOT
