@<TRIPOS>MOLECULE
T5F
   79    82     1     0     0
SMALL
bcc


@<TRIPOS>ATOM
      1 C1           0.0000     0.0000     0.0000 c3         1 T5F      -0.058067
      2 C2          -8.6570     2.2000     8.4750 c3         1 T5F      -0.057200
      3 C3          -7.3690     1.5000     8.0360 c3         1 T5F      -0.036400
      4 C7          -3.6350     1.5750     4.7470 c          1 T5F       0.966600
      5 C8           0.0010     2.4990     0.0000 c3         1 T5F      -0.058067
      6 C9           2.0410     2.4980     1.4420 c3         1 T5F      -0.034733
      7 C10          1.5310     2.4980    -0.0000 c3         1 T5F      -0.010367
      8 C11          2.0400     0.0000     1.4430 c3         1 T5F      -0.034733
      9 C12          1.5290     0.0000     0.0000 c3         1 T5F      -0.010367
     10 C13          2.0400     1.2480    -0.7220 c3         1 T5F      -0.034733
     11 C14         -4.1520     2.3060     1.2320 c3         1 T5F       0.127500
     12 C15         -2.6480     2.2610     1.3050 c          1 T5F       0.610100
     13 C19          0.0010     1.2500     2.1640 c3         1 T5F      -0.058067
     14 C21         -4.5860     2.5510    -0.2150 c3         1 T5F      -0.062400
     15 C22         -4.2210     1.3360    -1.0700 c3         1 T5F      -0.032700
     16 C24         -4.6950    -1.0800    -1.4880 c3         1 T5F      -0.017400
     17 C27          1.5300     1.2500     2.1640 c3         1 T5F      -0.010367
     18 C18         -0.5100     1.2500     0.7210 c3         1 T5F       0.003400
     19 N17         -1.9750     1.2500     0.7220 ns         1 T5F      -0.207900
     20 O16         -2.0430     3.1360     1.8880 o          1 T5F      -0.640100
     21 C23         -5.0600     0.1340    -0.6330 c3         1 T5F      -0.110400
     22 C25         -4.9750    -0.7710    -2.9600 c3         1 T5F      -0.012400
     23 C28         -4.1350     0.4310    -3.3970 c3         1 T5F      -0.017400
     24 C29         -4.5000     1.6460    -2.5420 c3         1 T5F      -0.110400
     25 N13         -4.6510     3.3900     2.0820 n7         1 T5F      -0.534100
     26 S1          -6.0930     3.2220     2.8780 s6         1 T5F       1.106800
     27 O12         -6.2860     4.4200     3.6180 o          1 T5F      -0.615300
     28 O1          -7.0260     2.7400     1.9210 o          1 T5F      -0.615300
     29 N10         -5.9000     2.0110     3.9920 n7         1 T5F      -0.566100
     30 C6          -4.9660     2.1850     5.1070 c3         1 T5F       0.073500
     31 C5          -5.5230     1.4920     6.3520 c3         1 T5F      -0.047400
     32 C4          -6.8110     2.1920     6.7920 c3         1 T5F      -0.012400
     33 N1          -9.1920     1.5350     9.6710 nz         1 T5F       0.076400
     34 H1          -0.3910    -0.0550    -1.0090 hc         1 T5F       0.040867
     35 H2          -0.3340    -0.8660     0.5580 hc         1 T5F       0.040867
     36 H3          -8.4480     3.2360     8.7150 hx         1 T5F       0.084200
     37 H4          -9.3870     2.1520     7.6760 hx         1 T5F       0.084200
     38 H5          -6.6430     1.5630     8.8380 hc         1 T5F       0.031200
     39 H6          -7.5780     0.4630     7.8010 hc         1 T5F       0.031200
     40 H7          -0.3500     2.4790    -1.0250 hc         1 T5F       0.040867
     41 H8          -0.3680     3.3890     0.4960 hc         1 T5F       0.040867
     42 H9           1.6830     3.3840     1.9520 hc         1 T5F       0.016033
     43 H10          3.1240     2.4980     1.4400 hc         1 T5F       0.016033
     44 H11          1.8940     3.3820    -0.5100 hc         1 T5F       0.018033
     45 H12          3.1230    -0.0190     1.4810 hc         1 T5F       0.016033
     46 H13          1.5950    -0.8490     1.9480 hc         1 T5F       0.016033
     47 H14          1.8900    -0.8840    -0.5110 hc         1 T5F       0.018033
     48 H15          3.0860     1.2990    -0.4420 hc         1 T5F       0.016033
     49 H16          2.1410     0.7830    -1.6950 hc         1 T5F       0.016033
     50 H17         -4.5600     1.3630     1.5750 h1         1 T5F       0.070700
     51 H18         -0.2790     2.1990     2.6040 hc         1 T5F       0.040867
     52 H19         -0.7870     0.5580     2.4360 hc         1 T5F       0.040867
     53 H20         -4.1000     3.4380    -0.6030 hc         1 T5F       0.039200
     54 H21         -5.6620     2.6780    -0.2370 hc         1 T5F       0.039200
     55 H22         -3.1700     1.1040    -0.9440 hc         1 T5F       0.033700
     56 H23         -4.9850    -2.0500    -1.1020 hc         1 T5F       0.014950
     57 H24         -3.6790    -0.7680    -1.2800 hc         1 T5F       0.014950
     58 H25          1.8660     1.2370     3.1930 hc         1 T5F       0.018033
     59 H26         -2.4720     0.5580     0.1970 hn         1 T5F       0.188500
     60 H27         -4.0750     0.3010    -0.2150 hc         1 T5F       0.040950
     61 H28         -5.8530     0.1800     0.1040 hc         1 T5F       0.040950
     62 H29         -6.0210    -0.5190    -3.0820 hc         1 T5F       0.010700
     63 H30         -4.7310    -1.6300    -3.5730 hc         1 T5F       0.010700
     64 H31         -4.3070     0.6460    -4.4440 hc         1 T5F       0.014950
     65 H32         -3.0850     0.2010    -3.2570 hc         1 T5F       0.014950
     66 H33         -3.9060     2.4940    -2.8590 hc         1 T5F       0.040950
     67 H34         -5.5520     1.8710    -2.6680 hc         1 T5F       0.040950
     68 H35         -4.0700     4.1860     2.2590 hn         1 T5F       0.367800
     69 H36         -6.3330     1.1200     3.8530 hn         1 T5F       0.334800
     70 H37         -4.8310     3.2390     5.3160 h1         1 T5F       0.050700
     71 H39         -4.7870     1.4270     7.1440 hc         1 T5F       0.045200
     72 H40         -5.6780     0.5400     5.8590 hc         1 T5F       0.045200
     73 H41         -7.5410     2.1910     5.9910 hc         1 T5F       0.029700
     74 H42         -6.5700     3.2140     7.0590 hc         1 T5F       0.029700
     75 H43         -9.0210     0.5500     9.6160 hn         1 T5F       0.219467
     76 H44         -8.7370     1.8970    10.4850 hn         1 T5F       0.219467
     77 O9          -2.6190     1.6160     5.6230 o          1 T5F      -0.881300
     78 H131       -10.1800     1.6930     9.7140 hn         1 T5F       0.219467
     79 O8          -3.4830     1.0500     3.6690 o          1 T5F      -0.881300
@<TRIPOS>BOND
     1     1     9 1   
     2     1    18 1   
     3     1    34 1   
     4     1    35 1   
     5     2     3 1   
     6     2    33 1   
     7     2    36 1   
     8     2    37 1   
     9     3    32 1   
    10     3    38 1   
    11     3    39 1   
    12     4    30 1   
    13     4    77 1   
    14     4    79 1   
    15     5     7 1   
    16     5    18 1   
    17     5    40 1   
    18     5    41 1   
    19     6     7 1   
    20     6    17 1   
    21     6    42 1   
    22     6    43 1   
    23     7    10 1   
    24     7    44 1   
    25     8     9 1   
    26     8    17 1   
    27     8    45 1   
    28     8    46 1   
    29     9    10 1   
    30     9    47 1   
    31    10    48 1   
    32    10    49 1   
    33    11    12 1   
    34    11    14 1   
    35    11    25 1   
    36    11    50 1   
    37    12    19 1   
    38    12    20 2   
    39    13    17 1   
    40    13    18 1   
    41    13    51 1   
    42    13    52 1   
    43    14    15 1   
    44    14    53 1   
    45    14    54 1   
    46    15    21 1   
    47    15    24 1   
    48    15    55 1   
    49    16    21 1   
    50    16    22 1   
    51    16    56 1   
    52    16    57 1   
    53    17    58 1   
    54    18    19 1   
    55    19    59 1   
    56    21    60 1   
    57    21    61 1   
    58    22    23 1   
    59    22    62 1   
    60    22    63 1   
    61    23    24 1   
    62    23    64 1   
    63    23    65 1   
    64    24    66 1   
    65    24    67 1   
    66    25    26 1   
    67    25    68 1   
    68    26    27 2   
    69    26    28 2   
    70    26    29 1   
    71    29    30 1   
    72    29    69 1   
    73    30    31 1   
    74    30    70 1   
    75    31    32 1   
    76    31    71 1   
    77    31    72 1   
    78    32    73 1   
    79    32    74 1   
    80    33    75 1   
    81    33    76 1   
    82    33    78 1   
@<TRIPOS>SUBSTRUCTURE
     1 T5F         1 TEMP              0 ****  ****    0 ROOT
