@<TRIPOS>MOLECULE
T5J
   36    38     1     0     0
SMALL
bcc


@<TRIPOS>ATOM
      1 C1           0.0000     0.0000     0.0000 c3         1 T5J       0.071200
      2 C2           1.5070     0.0000     0.0000 ca         1 T5J      -0.138300
      3 C3           2.1960     0.0000     1.1990 ca         1 T5J      -0.059000
      4 C4           3.5770     0.0010     1.2030 ca         1 T5J      -0.148000
      5 C5           4.2750     0.0000     0.0020 ca         1 T5J       0.025600
      6 C6           3.5820    -0.0010    -1.2010 ca         1 T5J      -0.132000
      7 C7           2.1980    -0.0060    -1.1990 ca         1 T5J       0.122900
      8 F8           1.5210    -0.0130    -2.3690 f          1 T5J      -0.129900
      9 N9           5.6730     0.0010     0.0030 nu         1 T5J      -0.314300
     10 C10          6.3690    -0.7270    -0.9510 ca         1 T5J       0.518200
     11 C11          7.7640    -0.6160    -1.0140 ca         1 T5J      -0.299300
     12 C12          8.4610    -1.3260    -1.9470 ca         1 T5J       0.031700
     13 C13          7.7410    -2.1580    -2.8260 ca         1 T5J      -0.221300
     14 C14          6.3330    -2.2280    -2.7130 ca         1 T5J       0.460600
     15 N15          5.7020    -1.5110    -1.7750 nb         1 T5J      -0.664000
     16 C16          5.6130    -3.0580    -3.5900 ca         1 T5J      -0.206300
     17 C17          6.2730    -3.7840    -4.5360 ca         1 T5J      -0.033000
     18 C18          7.6580    -3.7210    -4.6540 ca         1 T5J      -0.242000
     19 C19          8.3980    -2.9190    -3.8130 ca         1 T5J       0.193100
     20 O20          9.7490    -2.8620    -3.9340 oh         1 T5J      -0.477100
     21 C21          9.9620    -1.2240    -2.0350 c3         1 T5J       0.049200
     22 H11C        -0.3610     0.8870    -0.5060 hc         1 T5J       0.010033
     23 H12C        -0.3610    -0.8820    -0.5150 hc         1 T5J       0.010033
     24 H13C        -0.3610    -0.0050     1.0210 hc         1 T5J       0.010033
     25 H3           1.6530     0.0010     2.1360 ha         1 T5J       0.108000
     26 H4           4.1160     0.0010     2.1420 ha         1 T5J       0.107000
     27 H6           4.1230    -0.0040    -2.1390 ha         1 T5J       0.147000
     28 H9           6.1720     0.5360     0.6860 hn         1 T5J       0.286800
     29 H11          8.2930    -0.0150    -0.2850 ha         1 T5J       0.119000
     30 H211        10.3210    -0.5260    -1.2870 hc         1 T5J       0.020033
     31 H212        10.2420    -0.8720    -3.0200 hc         1 T5J       0.020033
     32 H213        10.4020    -2.1980    -1.8600 hc         1 T5J       0.020033
     33 H16          4.5340    -3.1200    -3.5140 ha         1 T5J       0.123000
     34 H17          5.7100    -4.4210    -5.2070 ha         1 T5J       0.100000
     35 H18          8.1590    -4.3080    -5.4140 ha         1 T5J       0.110000
     36 H20         10.0500    -3.5980    -4.4410 ho         1 T5J       0.402000
@<TRIPOS>BOND
     1     1     2 1   
     2     1    22 1   
     3     1    23 1   
     4     1    24 1   
     5     2     3 ar  
     6     2     7 ar  
     7     3     4 ar  
     8     3    25 1   
     9     4     5 ar  
    10     4    26 1   
    11     5     6 ar  
    12     5     9 1   
    13     6     7 ar  
    14     6    27 1   
    15     7     8 1   
    16     9    10 1   
    17     9    28 1   
    18    10    11 ar  
    19    10    15 ar  
    20    11    12 ar  
    21    11    29 1   
    22    12    13 ar  
    23    12    21 1   
    24    13    14 ar  
    25    13    19 ar  
    26    14    15 ar  
    27    14    16 ar  
    28    16    17 ar  
    29    16    33 1   
    30    17    18 ar  
    31    17    34 1   
    32    18    19 ar  
    33    18    35 1   
    34    19    20 1   
    35    20    36 1   
    36    21    30 1   
    37    21    31 1   
    38    21    32 1   
@<TRIPOS>SUBSTRUCTURE
     1 T5J         1 TEMP              0 ****  ****    0 ROOT
