@<TRIPOS>MOLECULE
molecule
   36    38     1     0     0
SMALL
bcc


@<TRIPOS>ATOM
      1 C1           0.0000     0.0000     0.0000 c3         1 T5J      -0.040800
      2 C2           1.5070     0.0000     0.0000 ca         1 T5J      -0.141300
      3 C3           2.1960     0.0000     1.1990 ca         1 T5J      -0.088000
      4 C4           3.5770     0.0010     1.2030 ca         1 T5J      -0.178000
      5 C5           4.2750     0.0000     0.0020 ca         1 T5J       0.179600
      6 C6           3.5820    -0.0010    -1.2010 ca         1 T5J      -0.159000
      7 C7           2.1980    -0.0060    -1.1990 ca         1 T5J       0.145900
      8 F8           1.5210    -0.0130    -2.3690 f          1 T5J      -0.140900
      9 N9           5.6730     0.0010     0.0030 nu         1 T5J      -0.774300
     10 C10          6.3690    -0.7270    -0.9510 ca         1 T5J       0.713200
     11 C11          7.7640    -0.6160    -1.0140 ca         1 T5J      -0.317300
     12 C12          8.4610    -1.3260    -1.9470 ca         1 T5J       0.028700
     13 C13          7.7410    -2.1580    -2.8260 ca         1 T5J      -0.216300
     14 C14          6.3330    -2.2280    -2.7130 ca         1 T5J       0.498600
     15 N15          5.7020    -1.5110    -1.7750 nb         1 T5J      -0.765000
     16 C16          5.6130    -3.0580    -3.5900 ca         1 T5J      -0.220300
     17 C17          6.2730    -3.7840    -4.5360 ca         1 T5J      -0.067000
     18 C18          7.6580    -3.7210    -4.6540 ca         1 T5J      -0.254000
     19 C19          8.3980    -2.9190    -3.8130 ca         1 T5J       0.171100
     20 O20          9.7490    -2.8620    -3.9340 oh         1 T5J      -0.499100
     21 C21          9.9620    -1.2240    -2.0350 c3         1 T5J      -0.046800
     22 H11C        -0.3610     0.8870    -0.5060 hc         1 T5J       0.045367
     23 H12C        -0.3610    -0.8820    -0.5150 hc         1 T5J       0.045367
     24 H13C        -0.3610    -0.0050     1.0210 hc         1 T5J       0.045367
     25 H3           1.6530     0.0010     2.1360 ha         1 T5J       0.136000
     26 H4           4.1160     0.0010     2.1420 ha         1 T5J       0.132000
     27 H6           4.1230    -0.0040    -2.1390 ha         1 T5J       0.170000
     28 H9           6.1720     0.5360     0.6860 hn         1 T5J       0.456800
     29 H11          8.2930    -0.0150    -0.2850 ha         1 T5J       0.136000
     30 H211        10.3210    -0.5260    -1.2870 hc         1 T5J       0.055033
     31 H212        10.2420    -0.8720    -3.0200 hc         1 T5J       0.055033
     32 H213        10.4020    -2.1980    -1.8600 hc         1 T5J       0.055033
     33 H16          4.5340    -3.1200    -3.5140 ha         1 T5J       0.151000
     34 H17          5.7100    -4.4210    -5.2070 ha         1 T5J       0.133000
     35 H18          8.1590    -4.3080    -5.4140 ha         1 T5J       0.130000
     36 H20         10.0500    -3.5980    -4.4410 ho         1 T5J       0.422000
@<TRIPOS>BOND
     1     1     2 1
     2     2     3 ar
     3     2     7 ar
     4     3     4 ar
     5     4     5 ar
     6     5     6 ar
     7     5     9 1
     8     6     7 ar
     9     7     8 1
    10     9    10 1
    11    10    11 ar
    12    10    15 ar
    13    11    12 ar
    14    12    13 ar
    15    12    21 1
    16    13    14 ar
    17    13    19 ar
    18    14    15 ar
    19    14    16 ar
    20    16    17 ar
    21    17    18 ar
    22    18    19 ar
    23    19    20 1
    24     1    22 1
    25     1    23 1
    26     1    24 1
    27     3    25 1
    28     4    26 1
    29     6    27 1
    30     9    28 1
    31    11    29 1
    32    21    30 1
    33    21    31 1
    34    21    32 1
    35    16    33 1
    36    17    34 1
    37    18    35 1
    38    20    36 1
@<TRIPOS>SUBSTRUCTURE
     1 T5J         1 TEMP              0 ****  ****    0 ROOT
