@<TRIPOS>MOLECULE
T5M
   43    45     1     0     0
SMALL
bcc


@<TRIPOS>ATOM
      1 C1           0.0000     0.0000     0.0000 c3         1 T5M      -0.001433
      2 C2           1.5300     0.0000     0.0000 c3         1 T5M       0.002300
      3 C3           2.0400     0.0000     1.4430 c3         1 T5M      -0.001433
      4 C4           2.0330    -1.2300    -0.7110 ca         1 T5M      -0.127300
      5 C5           1.1370    -2.1360    -1.2340 ca         1 T5M      -0.008000
      6 C6           1.6050    -3.2760    -1.8930 ca         1 T5M      -0.189600
      7 C7           0.6490    -4.2490    -2.4560 c          1 T5M       0.640700
      8 O8          -0.5410    -4.1320    -2.2330 o          1 T5M      -0.650100
      9 N9           1.0940    -5.2690    -3.2170 n          1 T5M      -0.158800
     10 C10          0.2710    -6.2470    -3.9350 c3         1 T5M       0.111800
     11 C11          1.2020    -7.1940    -4.6470 ca         1 T5M      -0.115800
     12 C12          0.9470    -8.2880    -5.4560 ca         1 T5M      -0.070500
     13 C13          1.9940    -9.0080    -6.0000 ca         1 T5M      -0.096500
     14 C14          3.2990    -8.6340    -5.7360 ca         1 T5M      -0.096500
     15 C15          3.5540    -7.5430    -4.9290 ca         1 T5M      -0.070500
     16 C16          2.5060    -6.8210    -4.3840 ca         1 T5M      -0.115800
     17 C17          2.4940    -5.6070    -3.4900 c3         1 T5M       0.111800
     18 C18          2.9800    -3.4910    -2.0190 ca         1 T5M      -0.113000
     19 C20          3.8690    -2.5810    -1.4920 ca         1 T5M      -0.210000
     20 C19          2.0390     1.2500    -0.7210 c3         1 T5M      -0.001433
     21 C21          3.4000    -1.4450    -0.8420 ca         1 T5M       0.181100
     22 O22          4.2780    -0.5470    -0.3310 oh         1 T5M      -0.467100
     23 H11C        -0.3610     0.0130    -1.0210 hc         1 T5M       0.010144
     24 H12C        -0.3610     0.8780     0.5220 hc         1 T5M       0.010144
     25 H13C        -0.3610    -0.8910     0.4990 hc         1 T5M       0.010144
     26 H31C         1.8970    -0.9820     1.8760 hc         1 T5M       0.010144
     27 H32C         3.0940     0.2490     1.4530 hc         1 T5M       0.010144
     28 H33C         1.4900     0.7330     2.0200 hc         1 T5M       0.010144
     29 H191         3.0860     1.4020    -0.4840 hc         1 T5M       0.010144
     30 H192         1.4680     2.1110    -0.3970 hc         1 T5M       0.010144
     31 H193         1.9260     1.1220    -1.7900 hc         1 T5M       0.010144
     32 H5           0.0740    -1.9340    -1.1900 ha         1 T5M       0.144000
     33 H18          3.3460    -4.3750    -2.5270 ha         1 T5M       0.150000
     34 H101        -0.3370    -5.7300    -4.6670 h1         1 T5M       0.033200
     35 H102        -0.3230    -6.8030    -3.2210 h1         1 T5M       0.033200
     36 H171         3.0040    -5.8320    -2.5610 h1         1 T5M       0.033200
     37 H172         2.9800    -4.7790    -3.9920 h1         1 T5M       0.033200
     38 H12         -0.0750    -8.5810    -5.6630 ha         1 T5M       0.104000
     39 H13          1.7920    -9.8640    -6.6330 ha         1 T5M       0.106000
     40 H14          4.1210    -9.1980    -6.1620 ha         1 T5M       0.106000
     41 H15          4.5770    -7.2510    -4.7220 ha         1 T5M       0.104000
     42 H20          4.9350    -2.7470    -1.5910 ha         1 T5M       0.109000
     43 H22          5.1590    -0.8320    -0.5110 ho         1 T5M       0.400000
@<TRIPOS>BOND
     1     1     2 1   
     2     1    23 1   
     3     1    24 1   
     4     1    25 1   
     5     2     3 1   
     6     2     4 1   
     7     2    20 1   
     8     3    26 1   
     9     3    27 1   
    10     3    28 1   
    11     4     5 ar  
    12     4    21 ar  
    13     5     6 ar  
    14     5    32 1   
    15     6     7 1   
    16     6    18 ar  
    17     7     8 2   
    18     7     9 1   
    19     9    10 1   
    20     9    17 1   
    21    10    11 1   
    22    10    34 1   
    23    10    35 1   
    24    11    12 ar  
    25    11    16 ar  
    26    12    13 ar  
    27    12    38 1   
    28    13    14 ar  
    29    13    39 1   
    30    14    15 ar  
    31    14    40 1   
    32    15    16 ar  
    33    15    41 1   
    34    16    17 1   
    35    17    36 1   
    36    17    37 1   
    37    18    19 ar  
    38    18    33 1   
    39    19    21 ar  
    40    19    42 1   
    41    20    29 1   
    42    20    30 1   
    43    20    31 1   
    44    21    22 1   
    45    22    43 1   
@<TRIPOS>SUBSTRUCTURE
     1 T5M         1 TEMP              0 ****  ****    0 ROOT
