@<TRIPOS>MOLECULE
T5P
   48    49     1     0     0
SMALL
bcc


@<TRIPOS>ATOM
      1 O33         2.9860    0.4450    0.5310 o         1 T5P     -0.841500
      2 P           2.0150    1.5650    0.4930 p5        1 T5P      1.429800
      3 O31         0.8860    1.7690    1.4160 o         1 T5P     -0.841500
      4 O32         3.0150    2.8610    0.4770 oh        1 T5P     -0.782400
      5 O27         1.4470    1.6660   -1.0560 os        1 T5P     -0.572200
      6 C17         2.3120    1.2710   -2.0730 c3        1 T5P      0.194400
      7 C16         2.5070    2.3770   -3.1090 c3        1 T5P     -0.126400
      8 C15         1.2850    2.5080   -4.0150 c3        1 T5P      0.081000
      9 N5          1.4860    3.1290   -5.3080 n         1 T5P     -0.266000
     10 C6          2.4970    2.6110   -6.1950 c         1 T5P      0.765500
     11 O6          2.8040    1.4180   -6.3680 o         1 T5P     -0.638500
     12 C9          1.5400    4.5470   -5.4590 cc        1 T5P     -0.299600
     13 C4          0.7450    5.5700   -4.8210 c         1 T5P      0.758700
     14 O4         -0.1310    5.4180   -3.9490 o         1 T5P     -0.643500
     15 N3          1.0140    6.8800   -5.2800 n         1 T5P     -0.601500
     16 C2          1.9380    7.1960   -6.2950 c         1 T5P      0.806500
     17 O2          2.0850    8.3940   -6.6350 o         1 T5P     -0.677500
     18 C8          2.4520    4.8780   -6.4970 cd        1 T5P      0.201200
     19 N1          2.6620    6.1710   -6.9280 n         1 T5P     -0.445100
     20 N7          3.0380    3.6970   -6.9740 n         1 T5P     -0.361000
     21 C10         4.0470    3.5990   -7.9900 c3        1 T5P      0.086000
     22 C11         3.6510    4.2020   -9.3590 c3        1 T5P      0.057100
     23 O19         3.5980    3.1390  -10.2970 oh        1 T5P     -0.627800
     24 C12         4.6710    5.3280   -9.7370 c3        1 T5P      0.373800
     25 O21         4.7700    6.2580   -8.7990 o         1 T5P     -0.876500
     26 C13         4.2110    5.9260  -11.1140 c3        1 T5P      0.037100
     27 O23         4.6340    5.0410  -12.1460 oh        1 T5P     -0.621800
     28 C14         4.8210    7.3090  -11.3190 c3        1 T5P      0.095400
     29 O26         4.2130    7.9800  -12.4190 oh        1 T5P     -0.643800
     30 H171        3.3140    0.9880   -1.6410 h1        1 T5P      0.024700
     31 H172        1.8750    0.3640   -2.5840 h1        1 T5P      0.024700
     32 H161        2.6990    3.3480   -2.5870 hc        1 T5P      0.047200
     33 H162        3.4120    2.1180   -3.7200 hc        1 T5P      0.047200
     34 H151        0.8810    1.4780   -4.2380 h1        1 T5P      0.081200
     35 H152        0.4910    3.1040   -3.4780 h1        1 T5P      0.081200
     36 H3          0.5280    7.6410   -4.8630 hn        1 T5P      0.334500
     37 H1          3.3700    6.3910   -7.6510 hn        1 T5P      0.436500
     38 H101        4.2780    2.5040   -8.1230 h1        1 T5P      0.076700
     39 H102        4.9680    4.1410   -7.6210 h1        1 T5P      0.076700
     40 H11         2.6120    4.6340   -9.3290 h1        1 T5P      0.042700
     41 H19         4.3050    3.2830  -10.9390 ho        1 T5P      0.411000
     42 H12         5.6580    4.8000   -9.9480 h1        1 T5P     -0.046300
     43 H21         3.9150    2.6030    0.3170 ho        1 T5P      0.420000
     44 H13         3.0890    6.0050  -11.1460 h1        1 T5P      0.011700
     45 H23         4.4460    5.4900  -12.9780 ho        1 T5P      0.381000
     46 H141        5.9020    7.2260  -11.6030 h1        1 T5P      0.070200
     47 H142        4.7160    7.9080  -10.3760 h1        1 T5P      0.070200
     48 H26         3.2910    8.1190  -12.1790 ho        1 T5P      0.388000
@<TRIPOS>BOND
     1    1    2 1
     2    2    3 1
     3    2    4 1
     4    2    5 1
     5    4   43 1
     6    5    6 1
     7    6    7 1
     8    6   30 1
     9    6   31 1
    10    7    8 1
    11    7   32 1
    12    7   33 1
    13    8    9 1
    14    8   34 1
    15    8   35 1
    16    9   10 1
    17    9   12 1
    18   10   11 2
    19   10   20 1
    20   12   13 1
    21   12   18 2
    22   13   14 2
    23   13   15 1
    24   15   16 1
    25   15   36 1
    26   16   17 2
    27   16   19 1
    28   18   19 1
    29   18   20 1
    30   19   37 1
    31   20   21 1
    32   21   22 1
    33   21   38 1
    34   21   39 1
    35   22   23 1
    36   22   24 1
    37   22   40 1
    38   23   41 1
    39   24   25 1
    40   24   26 1
    41   24   42 1
    42   26   27 1
    43   26   28 1
    44   26   44 1
    45   27   45 1
    46   28   29 1
    47   28   46 1
    48   28   47 1
    49   29   48 1
@<TRIPOS>SUBSTRUCTURE
     1 T5P         1 TEMP              0 ****  ****    0 ROOT
