@<TRIPOS>MOLECULE
molecule
   65    66     1     0     0
SMALL
bcc


@<TRIPOS>ATOM
      1 O2A          0.0000     0.0000     0.0000 o          1 T5X      -0.819500
      2 PA           1.6100     0.0000     0.0000 p5         1 T5X       1.431800
      3 O1A          2.1040     0.0000     1.3940 o          1 T5X      -0.819500
      4 O3A          2.1470    -1.3160    -0.7590 os         1 T5X      -0.707800
      5 PB           2.2370    -2.8740    -0.3670 p5         1 T5X       1.294900
      6 O3B          3.4410    -3.0960     0.6780 o          1 T5X      -0.612833
      7 O2B          0.9620    -3.3020     0.2510 o          1 T5X      -0.612833
      8 O1B          2.5080    -3.7460    -1.6930 o          1 T5X      -0.612833
      9 O7           2.1470     1.3140    -0.7600 os         1 T5X      -0.611200
     10 C7           1.9300     2.6390    -0.2700 c3         1 T5X       0.233400
     11 C6           2.5680     3.6470    -1.2280 c3         1 T5X      -0.019100
     12 C5           2.3390     5.0440    -0.7120 cc         1 T5X      -0.045400
     13 S1           0.9590     6.0750    -1.0880 ss         1 T5X       0.030200
     14 C2           1.6050     7.3120    -0.1010 cc         1 T5X      -0.049700
     15 CX2          0.9590     8.6550     0.1300 c3         1 T5X       0.226100
     16 CX3         -0.2690     8.7930    -0.7710 c3         1 T5X       0.120100
     17 CX4         -0.8470    10.2030    -0.6320 c3         1 T5X       0.131100
     18 CX5         -1.9930    10.3830    -1.6290 c3         1 T5X       0.190400
     19 OX5         -2.4580    11.7340    -1.5810 os         1 T5X      -0.589200
     20 PX          -3.6610    12.2810    -2.5010 p5         1 T5X       1.203900
     21 OX7         -3.3560    12.0100    -3.9230 o          1 T5X      -0.825500
     22 OX6         -5.0290    11.5370    -2.0930 o          1 T5X      -0.825500
     23 OX8         -3.8260    13.8680    -2.2800 o          1 T5X      -0.825500
     24 OX4         -1.3380    10.3870     0.6970 oh         1 T5X      -0.607800
     25 OX3         -1.2540     7.8340    -0.3840 oh         1 T5X      -0.551800
     26 CX1          0.5330     8.7700     1.5940 c3         1 T5X       0.139400
     27 OX1         -0.3570     7.7000     1.9170 oh         1 T5X      -0.584800
     28 OX2          1.8940     9.6910    -0.1760 oh         1 T5X      -0.560800
     29 N3           2.7230     6.9310     0.4170 na         1 T5X       0.067900
     30 C4           3.1430     5.7180     0.1150 cd         1 T5X      -0.081600
     31 CM4          4.4250     5.1420     0.6550 c3         1 T5X      -0.045800
     32 C7,          3.4900     7.8060     1.3080 c3         1 T5X       0.231600
     33 C5,          3.6570     7.1340     2.6470 ca         1 T5X      -0.475900
     34 C4,          4.9020     6.6530     3.0560 ca         1 T5X       0.472200
     35 N4,          6.0110     6.7830     2.2350 nv         1 T5X      -0.978500
     36 N3,          5.0080     6.0690     4.2460 nb         1 T5X      -0.677000
     37 C2,          3.9560     5.9430     5.0290 ca         1 T5X       0.616300
     38 CM2          4.1160     5.2750     6.3700 c3         1 T5X      -0.136400
     39 N1,          2.7680     6.3880     4.6720 nb         1 T5X      -0.776000
     40 C6,          2.5840     6.9860     3.5040 ca         1 T5X       0.502200
     41 H71          0.8650     2.8290    -0.2030 h1         1 T5X       0.040200
     42 H72          2.3770     2.7390     0.7110 h1         1 T5X       0.040200
     43 H61          3.6330     3.4570    -1.2950 hc         1 T5X       0.062700
     44 H62          2.1210     3.5460    -2.2100 hc         1 T5X       0.062700
     45 HX3          0.0190     8.6200    -1.8010 h1         1 T5X       0.032700
     46 HX4         -0.0730    10.9320    -0.8360 h1         1 T5X       0.043700
     47 HX51        -2.8050     9.7130    -1.3720 h1         1 T5X       0.027700
     48 HX52        -1.6420    10.1580    -2.6290 h1         1 T5X       0.027700
     49 HOX4        -1.4710    11.3070     0.8580 ho         1 T5X       0.418000
     50 HOX3        -1.5650     7.3770    -1.1480 ho         1 T5X       0.398000
     51 HX11         1.4080     8.7160     2.2310 h1         1 T5X       0.057700
     52 HX12         0.0310     9.7170     1.7510 h1         1 T5X       0.057700
     53 HOX1        -0.7830     7.8830     2.7380 ho         1 T5X       0.410000
     54 HOX2         2.1910     9.5940    -1.0660 ho         1 T5X       0.408000
     55 HM41         4.3150     4.9460     1.7150 hc         1 T5X       0.084700
     56 HM42         5.2320     5.8480     0.5000 hc         1 T5X       0.084700
     57 HM43         4.6510     4.2170     0.1390 hc         1 T5X       0.084700
     58 H7,1         2.9610     8.7430     1.4370 h1         1 T5X      -0.110300
     59 H7,2         4.4640     7.9970     0.8750 h1         1 T5X      -0.110300
     60 H4,1         6.2730     7.6840     1.8870 hn         1 T5X       0.130300
     61 H4,2         6.5890     5.9870     2.0470 hn         1 T5X       0.130300
     62 HM21         3.2720     5.5250     7.0010 hc         1 T5X       0.053367
     63 HM22         4.1600     4.2010     6.2350 hc         1 T5X       0.053367
     64 HM23         5.0310     5.6180     6.8380 hc         1 T5X       0.053367
     65 H6,          1.6030     7.3480     3.2220 h4         1 T5X       0.022100
@<TRIPOS>BOND
     1     3     2 1
     2     7     5 1
     3     2     9 1
     4     2     1 1
     5     2     4 1
     6     9    10 1
     7     5     8 1
     8     5     4 1
     9     5     6 1
    10    10    11 1
    11    11    12 1
    12    31    30 1
    13    12    30 2
    14    12    13 1
    15    30    29 1
    16    39    40 ar
    17    39    37 ar
    18    40    33 ar
    19    13    14 1
    20    29    32 1
    21    29    14 2
    22    38    37 1
    23    37    36 ar
    24    33    32 1
    25    33    34 ar
    26    14    15 1
    27    36    34 ar
    28    34    35 1
    29    25    16 1
    30    16    15 1
    31    16    17 1
    32    15    26 1
    33    15    28 1
    34    26    27 1
    35    18    17 1
    36    18    19 1
    37    21    20 1
    38    17    24 1
    39    19    20 1
    40    20    23 1
    41    20    22 1
    42    10    41 1
    43    10    42 1
    44    11    43 1
    45    11    44 1
    46    16    45 1
    47    17    46 1
    48    18    47 1
    49    18    48 1
    50    24    49 1
    51    25    50 1
    52    26    51 1
    53    26    52 1
    54    27    53 1
    55    28    54 1
    56    31    55 1
    57    31    56 1
    58    31    57 1
    59    32    58 1
    60    32    59 1
    61    35    60 1
    62    35    61 1
    63    38    62 1
    64    38    63 1
    65    38    64 1
    66    40    65 1
@<TRIPOS>SUBSTRUCTURE
     1 T5X         1 TEMP              0 ****  ****    0 ROOT
