@<TRIPOS>MOLECULE
T61
   31    32     1     0     0
SMALL
bcc


@<TRIPOS>ATOM
      1 N            0.0000     0.0000     0.0000 ns         1 T61      -0.063400
      2 C            1.3480     0.0000     0.0000 c          1 T61       0.592700
      3 O            1.9560     0.0000     1.0520 o          1 T61      -0.606100
      4 C1           2.0860     0.0000    -1.2810 ca         1 T61      -0.131600
      5 C10         10.4790     0.9330    -1.7280 ca         1 T61      -0.074000
      6 C11          9.7870     0.2440    -2.7090 ca         1 T61      -0.110500
      7 C12          8.4110     0.1580    -2.6540 ca         1 T61      -0.055500
      8 C13          3.4820    -0.0000    -1.2840 ca         1 T61      -0.033000
      9 C2           1.3900    -0.0060    -2.4910 ca         1 T61      -0.098000
     10 C3           2.0810    -0.0060    -3.6850 ca         1 T61      -0.088000
     11 C4           3.4640    -0.0010    -3.6880 ca         1 T61      -0.052600
     12 C5           4.1680    -0.0000    -2.4880 ca         1 T61      -0.086400
     13 C6           6.2440     0.6760    -1.5420 c          1 T61       0.589700
     14 C7           7.7170     0.7660    -1.6070 ca         1 T61      -0.164600
     15 C8           8.4210     1.4580    -0.6210 ca         1 T61      -0.055500
     16 C9           9.7980     1.5340    -0.6840 ca         1 T61      -0.110500
     17 N1           5.5660     0.0060    -2.4960 ns         1 T61      -0.043100
     18 O1          -0.7070    -0.0010     1.2270 oh         1 T61      -0.435100
     19 O2           5.6420     1.2060    -0.6290 o          1 T61      -0.623100
     20 Cl           4.3260    -0.0020    -5.1960 cl         1 T61      -0.023400
     21 H1          -0.5000     0.0360    -0.8660 hn         1 T61       0.160500
     22 H3          10.3270    -0.2250    -3.5220 ha         1 T61       0.107500
     23 H4           7.8710    -0.3820    -3.4220 ha         1 T61       0.114500
     24 H5           4.0270     0.0010    -0.3470 ha         1 T61       0.175000
     25 H6           0.3070    -0.0100    -2.4930 ha         1 T61       0.101000
     26 H7           1.5390    -0.0090    -4.6230 ha         1 T61       0.116000
     27 H8           7.8880     1.9310     0.1960 ha         1 T61       0.114500
     28 H9          10.3450     2.0710     0.0810 ha         1 T61       0.107500
     29 H10          6.0640    -0.5070    -3.1960 hn         1 T61       0.181500
     30 H11         -1.6230    -0.1560     1.0620 ho         1 T61       0.391000
     31 H2          11.5590     0.9970    -1.7730 ha         1 T61       0.103000
@<TRIPOS>BOND
     1     1     2 1   
     2     1    18 1   
     3     1    21 1   
     4     2     3 2   
     5     2     4 1   
     6     4     8 ar  
     7     4     9 ar  
     8     5     6 ar  
     9     5    16 ar  
    10     5    31 1   
    11     6     7 ar  
    12     6    22 1   
    13     7    14 ar  
    14     7    23 1   
    15     8    12 ar  
    16     8    24 1   
    17     9    10 ar  
    18     9    25 1   
    19    10    11 ar  
    20    10    26 1   
    21    11    12 ar  
    22    11    20 1   
    23    12    17 1   
    24    13    14 1   
    25    13    17 1   
    26    13    19 2   
    27    14    15 ar  
    28    15    16 ar  
    29    15    27 1   
    30    16    28 1   
    31    17    29 1   
    32    18    30 1   
@<TRIPOS>SUBSTRUCTURE
     1 T61         1 TEMP              0 ****  ****    0 ROOT
