@<TRIPOS>MOLECULE
molecule
   31    32     1     0     0
SMALL
bcc


@<TRIPOS>ATOM
      1 N            0.0000     0.0000     0.0000 ns         1 T61      -0.472400
      2 C            1.3480     0.0000     0.0000 c          1 T61       0.686700
      3 O            1.9560     0.0000     1.0520 o          1 T61      -0.560100
      4 C1           2.0860     0.0000    -1.2810 ca         1 T61      -0.121600
      5 C10         10.4790     0.9330    -1.7280 ca         1 T61      -0.101000
      6 C11          9.7870     0.2440    -2.7090 ca         1 T61      -0.137500
      7 C12          8.4110     0.1580    -2.6540 ca         1 T61      -0.082500
      8 C13          3.4820    -0.0000    -1.2840 ca         1 T61      -0.060000
      9 C2           1.3900    -0.0060    -2.4910 ca         1 T61      -0.123000
     10 C3           2.0810    -0.0060    -3.6850 ca         1 T61      -0.112000
     11 C4           3.4640    -0.0010    -3.6880 ca         1 T61       0.011400
     12 C5           4.1680    -0.0000    -2.4880 ca         1 T61       0.061600
     13 C6           6.2440     0.6760    -1.5420 c          1 T61       0.677700
     14 C7           7.7170     0.7660    -1.6070 ca         1 T61      -0.151600
     15 C8           8.4210     1.4580    -0.6210 ca         1 T61      -0.082500
     16 C9           9.7980     1.5340    -0.6840 ca         1 T61      -0.137500
     17 N1           5.5660     0.0060    -2.4960 ns         1 T61      -0.475100
     18 O1          -0.7070    -0.0010     1.2270 oh         1 T61      -0.358100
     19 O2           5.6420     1.2060    -0.6290 o          1 T61      -0.584100
     20 Cl           4.3260    -0.0020    -5.1960 cl         1 T61      -0.105400
     21 H1          -0.5000     0.0360    -0.8660 hn         1 T61       0.320500
     22 H3          10.3270    -0.2250    -3.5220 ha         1 T61       0.137000
     23 H4           7.8710    -0.3820    -3.4220 ha         1 T61       0.142500
     24 H5           4.0270     0.0010    -0.3470 ha         1 T61       0.202000
     25 H6           0.3070    -0.0100    -2.4930 ha         1 T61       0.127000
     26 H7           1.5390    -0.0090    -4.6230 ha         1 T61       0.149000
     27 H8           7.8880     1.9310     0.1960 ha         1 T61       0.142500
     28 H9          10.3450     2.0710     0.0810 ha         1 T61       0.137000
     29 H10          6.0640    -0.5070    -3.1960 hn         1 T61       0.336500
     30 H11         -1.6230    -0.1560     1.0620 ho         1 T61       0.398000
     31 H2          11.5590     0.9970    -1.7730 ha         1 T61       0.134000
@<TRIPOS>BOND
     1    10     9 ar
     2    10    11 ar
     3     9     4 ar
     4    20    11 1
     5    11    12 ar
     6     1    18 1
     7     1     2 1
     8     4     2 1
     9     4     8 ar
    10     2     3 2
    11    12     8 ar
    12    12    17 1
    13    17    13 1
    14    13    19 2
    15    13    14 1
    16    14    15 ar
    17    14     7 ar
    18    15    16 ar
    19     7     6 ar
    20    16     5 ar
    21     6     5 ar
    22     1    21 1
    23     5    31 1
    24     6    22 1
    25     7    23 1
    26     8    24 1
    27     9    25 1
    28    10    26 1
    29    15    27 1
    30    16    28 1
    31    17    29 1
    32    18    30 1
@<TRIPOS>SUBSTRUCTURE
     1 T61         1 TEMP              0 ****  ****    0 ROOT
