@<TRIPOS>MOLECULE
T62
   36    39     1     0     0
SMALL
bcc


@<TRIPOS>ATOM
      1 N18          0.0000     0.0000     0.0000 nv         1 T62      -0.560800
      2 C17          1.3930     0.0000     0.0000 cc         1 T62       0.656200
      3 N16          2.1540     0.0000     1.0730 nd         1 T62      -0.740100
      4 N19          2.1640    -0.0030    -1.0890 nc         1 T62      -0.380300
      5 C20          3.4320    -0.0010    -0.7340 cd         1 T62      -0.140300
      6 C21          4.7040    -0.0040    -1.4630 ca         1 T62      -0.126300
      7 C22          4.7640    -0.0090    -2.8550 ca         1 T62      -0.048000
      8 C23          5.9810    -0.0110    -3.4780 ca         1 T62      -0.102000
      9 C14          7.1560    -0.0060    -2.7380 ca         1 T62      -0.080000
     10 C13          7.1260    -0.0020    -1.3710 ca         1 T62      -0.141300
     11 C12          5.8970    -0.0000    -0.7050 ca         1 T62       0.363600
     12 N11          5.8230     0.0060     0.6480 nc         1 T62      -0.572000
     13 N15          3.4850     0.0010     0.6340 na         1 T62       0.458200
     14 C10          4.6850     0.0070     1.2750 cd         1 T62       0.360800
     15 C9           4.6960     0.0130     2.7810 c3         1 T62      -0.012400
     16 C8           6.1200     0.0160     3.2740 ca         1 T62      -0.038300
     17 C3           6.7720     1.2160     3.4940 ca         1 T62      -0.140500
     18 C7           6.7720    -1.1790     3.5100 ca         1 T62      -0.140500
     19 C5           8.0830    -1.1800     3.9640 ca         1 T62       0.145600
     20 O6           8.7220    -2.3560     4.1950 oh         1 T62      -0.500600
     21 C4           8.7400     0.0220     4.1800 ca         1 T62      -0.178000
     22 C2           8.0830     1.2200     3.9480 ca         1 T62       0.145600
     23 O1           8.7230     2.4000     4.1640 oh         1 T62      -0.500600
     24 H18A        -0.5000    -0.8670     0.0030 hn         1 T62       0.279800
     25 H18B        -0.5000     0.8670    -0.0010 hn         1 T62       0.279800
     26 H22          3.8520    -0.0130    -3.4400 ha         1 T62       0.127000
     27 H23          6.0290    -0.0140    -4.5600 ha         1 T62       0.109000
     28 H14          8.1100    -0.0080    -3.2510 ha         1 T62       0.106000
     29 H13          8.0510     0.0010    -0.8070 ha         1 T62       0.119000
     30 H91C         4.1880    -0.8700     3.1490 hc         1 T62       0.044700
     31 H92C         4.1870     0.8990     3.1420 hc         1 T62       0.044700
     32 H3           6.2580     2.1520     3.3130 ha         1 T62       0.116000
     33 H7           6.2520    -2.1180     3.3580 ha         1 T62       0.116000
     34 H6           9.1600    -2.6360     3.4080 ho         1 T62       0.403000
     35 H4           9.7640     0.0240     4.5340 ha         1 T62       0.124000
     36 H1           9.1620     2.6690     3.3750 ho         1 T62       0.403000
@<TRIPOS>BOND
     1     1     2 1   
     2     1    24 1   
     3     1    25 1   
     4     2     3 2   
     5     2     4 1   
     6     3    13 1   
     7     4     5 2   
     8     5     6 1   
     9     5    13 1   
    10     6     7 ar  
    11     6    11 ar  
    12     7     8 ar  
    13     7    26 1   
    14     8     9 ar  
    15     8    27 1   
    16     9    10 ar  
    17     9    28 1   
    18    10    11 ar  
    19    10    29 1   
    20    11    12 1   
    21    12    14 2   
    22    13    14 1   
    23    14    15 1   
    24    15    16 1   
    25    15    30 1   
    26    15    31 1   
    27    16    17 ar  
    28    16    18 ar  
    29    17    22 ar  
    30    17    32 1   
    31    18    19 ar  
    32    18    33 1   
    33    19    20 1   
    34    19    21 ar  
    35    20    34 1   
    36    21    22 ar  
    37    21    35 1   
    38    22    23 1   
    39    23    36 1   
@<TRIPOS>SUBSTRUCTURE
     1 T62         1 TEMP              0 ****  ****    0 ROOT
