@<TRIPOS>MOLECULE
T65
   52    54     1     0     0
SMALL
bcc


@<TRIPOS>ATOM
      1 O2           0.0000     0.0000     0.0000 o          1 T65      -0.597500
      2 C17          1.3420     0.0000     0.0000 c2         1 T65       0.412000
      3 O1           1.9460     0.0000     1.0470 o          1 T65      -0.597500
      4 C16          2.0970    -0.0000    -1.3040 c3         1 T65      -0.147000
      5 N            3.5380    -0.0000    -1.0350 n2         1 T65       0.192000
      6 C15          4.2580    -1.0130    -1.3810 c2         1 T65      -0.501000
      7 C14          5.7100    -1.0130    -1.1090 c3         1 T65       0.207000
      8 O            6.2220    -0.0640    -0.5650 o          1 T65      -0.352000
      9 C13          6.5520    -2.1950    -1.5130 c3         1 T65      -0.151000
     10 C12          8.0090    -1.9420    -1.1210 DU         1 T65      -0.129000
     11 C11          8.8510    -3.1260    -1.5250 c2         1 T65      -0.228000
     12 C10          9.9000    -2.9520    -2.2900 c2         1 T65      -0.229000
     13 C9          10.7420    -4.1350    -2.6930 DU         1 T65      -0.114000
     14 C8          10.8520    -4.1850    -4.2190 c3         1 T65      -0.098000
     15 C7          11.7070    -5.3870    -4.6290 c3         1 T65      -0.114000
     16 C           11.8160    -5.4380    -6.1530 c3         1 T65      -0.108000
     17 C1          12.6710    -6.6390    -6.5640 c3         1 T65      -0.108000
     18 C2          12.7800    -6.6900    -8.0890 c3         1 T65      -0.108000
     19 C3          13.6350    -7.8910    -8.4990 c3         1 T65      -0.108000
     20 C4          13.7440    -7.9420   -10.0240 c3         1 T65      -0.109000
     21 C5          14.5990    -9.1430   -10.4340 c3         1 T65      -0.107000
     22 C6          14.7090    -9.1950   -11.9590 c3         1 T65      -0.112000
     23 H2           1.8360     0.8850    -1.8720 h1         1 T65       0.067000
     24 H3           1.8360    -0.8840    -1.8720 h1         1 T65       0.067000
     25 H4           4.9910    -0.4790    -1.9730 DU         1 T65       0.247000
     26 H5           6.4850    -2.3360    -2.5860 hc         1 T65       0.084000
     27 H6           6.1910    -3.0840    -1.0100 hc         1 T65       0.084000
     28 H7           8.0750    -1.8010    -0.0490 ha         1 T65       0.091500
     29 H8           8.3700    -1.0540    -1.6260 ha         1 T65       0.091500
     30 H9           8.1200    -2.6470    -2.1660 DU         1 T65       0.215000
     31 H10         10.6300    -3.4300    -1.6480 DU         1 T65       0.167000
     32 H11         10.2800    -5.0460    -2.3340 ha         1 T65       0.057000
     33 H12         11.7310    -4.0380    -2.2630 ha         1 T65       0.057000
     34 H13          9.8630    -4.2820    -4.6490 hc         1 T65       0.059500
     35 H14         11.3140    -3.2740    -4.5780 hc         1 T65       0.059500
     36 H15         11.2440    -6.2990    -4.2690 hc         1 T65       0.052000
     37 H16         12.6960    -5.2900    -4.1990 hc         1 T65       0.052000
     38 H17         12.2770    -4.5270    -6.5130 hc         1 T65       0.055000
     39 H18         10.8260    -5.5360    -6.5830 hc         1 T65       0.055000
     40 H19         13.6600    -6.5420    -6.1340 hc         1 T65       0.053000
     41 H20         12.2090    -7.5510    -6.2040 hc         1 T65       0.053000
     42 H21         11.7910    -6.7880    -8.5190 hc         1 T65       0.054000
     43 H22         13.2420    -5.7790    -8.4480 hc         1 T65       0.054000
     44 H23         13.1740    -8.8030    -8.1390 hc         1 T65       0.053500
     45 H24         14.6250    -7.7940    -8.0690 hc         1 T65       0.053500
     46 H25         14.2060    -7.0310   -10.3830 hc         1 T65       0.054500
     47 H26         12.7550    -8.0400   -10.4540 hc         1 T65       0.054500
     48 H27         15.5890    -9.0460   -10.0040 hc         1 T65       0.050500
     49 H28         14.1370   -10.0550   -10.0750 hc         1 T65       0.050500
     50 H29         13.7200    -9.2920   -12.3900 hc         1 T65       0.038333
     51 H30         15.3140   -10.0450   -12.2490 hc         1 T65       0.038333
     52 H31         15.1710    -8.2830   -12.3190 hc         1 T65       0.038333
@<TRIPOS>BOND
     1     1     2 1   
     2     2     3 1   
     3     2     4 1   
     4     4     5 1   
     5     4    23 1   
     6     4    24 1   
     7     5     6 1   
     8     6     7 1   
     9     6    25 1   
    10     7     8 1   
    11     7     9 1   
    12     7    25 1   
    13     9    10 1   
    14     9    26 1   
    15     9    27 1   
    16    10    11 1   
    17    10    28 1   
    18    10    29 1   
    19    10    30 1   
    20    11    12 1   
    21    11    30 1   
    22    12    13 1   
    23    12    31 1   
    24    13    14 1   
    25    13    31 1   
    26    13    32 1   
    27    13    33 1   
    28    14    15 1   
    29    14    34 1   
    30    14    35 1   
    31    15    16 1   
    32    15    36 1   
    33    15    37 1   
    34    16    17 1   
    35    16    38 1   
    36    16    39 1   
    37    17    18 1   
    38    17    40 1   
    39    17    41 1   
    40    18    19 1   
    41    18    42 1   
    42    18    43 1   
    43    19    20 1   
    44    19    44 1   
    45    19    45 1   
    46    20    21 1   
    47    20    46 1   
    48    20    47 1   
    49    21    22 1   
    50    21    48 1   
    51    21    49 1   
    52    22    50 1   
    53    22    51 1   
    54    22    52 1   
@<TRIPOS>SUBSTRUCTURE
     1 T65         1 TEMP              0 ****  ****    0 ROOT
