@<TRIPOS>MOLECULE
molecule
   52    51     1     0     0
SMALL
bcc


@<TRIPOS>ATOM
      1 O2           0.0000     0.0000     0.0000 o          1 T65      -0.828300
      2 C17          1.3420     0.0000     0.0000 c          1 T65       0.897600
      3 O1           1.9460     0.0000     1.0470 o          1 T65      -0.828300
      4 C16          2.0970    -0.0000    -1.3040 c3         1 T65      -0.017200
      5 N            3.5380    -0.0000    -1.0350 n2         1 T65      -0.459900
      6 C15          4.2580    -1.0130    -1.3810 ce         1 T65       0.272200
      7 C14          5.7100    -1.0130    -1.1090 c          1 T65       0.480800
      8 O            6.2220    -0.0640    -0.5650 o          1 T65      -0.512100
      9 C13          6.5520    -2.1950    -1.5130 c3         1 T65      -0.177400
     10 C12          8.0090    -1.9420    -1.1210 c3         1 T65      -0.040200
     11 C11          8.8510    -3.1260    -1.5250 c2         1 T65      -0.165200
     12 C10          9.9000    -2.9520    -2.2900 c2         1 T65      -0.193200
     13 C9          10.7420    -4.1350    -2.6930 c3         1 T65      -0.045200
     14 C8          10.8520    -4.1850    -4.2190 c3         1 T65      -0.077400
     15 C7          11.7070    -5.3870    -4.6290 c3         1 T65      -0.083400
     16 C           11.8160    -5.4380    -6.1530 c3         1 T65      -0.081400
     17 C1          12.6710    -6.6390    -6.5640 c3         1 T65      -0.082400
     18 C2          12.7800    -6.6900    -8.0890 c3         1 T65      -0.081400
     19 C3          13.6350    -7.8910    -8.4990 c3         1 T65      -0.082400
     20 C4          13.7440    -7.9420   -10.0240 c3         1 T65      -0.081400
     21 C5          14.5990    -9.1430   -10.4340 c3         1 T65      -0.084400
     22 C6          14.7090    -9.1950   -11.9590 c3         1 T65      -0.092100
     23 H2           1.8360    -0.8840    -1.8720 h1         1 T65       0.041700
     24 H3           1.8360     0.8850    -1.8720 h1         1 T65       0.041700
     25 H4           3.7980    -1.8640    -1.8700 h4         1 T65      -0.037200
     26 H5           6.1910    -3.0840    -1.0100 hc         1 T65       0.059700
     27 H6           6.4850    -2.3360    -2.5860 hc         1 T65       0.059700
     28 H7           8.0750    -1.8010    -0.0490 hc         1 T65       0.060200
     29 H8           8.3700    -1.0540    -1.6260 hc         1 T65       0.060200
     30 H9           8.5880    -4.1190    -1.1830 ha         1 T65       0.119000
     31 H10         10.1620    -1.9580    -2.6320 ha         1 T65       0.126000
     32 H11         11.7310    -4.0380    -2.2630 hc         1 T65       0.041700
     33 H12         10.2800    -5.0460    -2.3340 hc         1 T65       0.041700
     34 H13         11.3140    -3.2740    -4.5780 hc         1 T65       0.043700
     35 H14          9.8630    -4.2820    -4.6490 hc         1 T65       0.043700
     36 H15         12.6960    -5.2900    -4.1990 hc         1 T65       0.039200
     37 H16         11.2440    -6.2990    -4.2690 hc         1 T65       0.039200
     38 H17         12.2770    -4.5270    -6.5130 hc         1 T65       0.041700
     39 H18         10.8260    -5.5360    -6.5830 hc         1 T65       0.041700
     40 H19         13.6600    -6.5420    -6.1340 hc         1 T65       0.039700
     41 H20         12.2090    -7.5510    -6.2040 hc         1 T65       0.039700
     42 H21         11.7910    -6.7880    -8.5190 hc         1 T65       0.041200
     43 H22         13.2420    -5.7790    -8.4480 hc         1 T65       0.041200
     44 H23         14.6250    -7.7940    -8.0690 hc         1 T65       0.040200
     45 H24         13.1740    -8.8030    -8.1390 hc         1 T65       0.040200
     46 H25         14.2060    -7.0310   -10.3830 hc         1 T65       0.041200
     47 H26         12.7550    -8.0400   -10.4540 hc         1 T65       0.041200
     48 H27         14.1370   -10.0550   -10.0750 hc         1 T65       0.039200
     49 H28         15.5890    -9.0460   -10.0040 hc         1 T65       0.039200
     50 H29         15.3140   -10.0450   -12.2490 hc         1 T65       0.031367
     51 H30         15.1710    -8.2830   -12.3190 hc         1 T65       0.031367
     52 H31         13.7200    -9.2920   -12.3900 hc         1 T65       0.031367
@<TRIPOS>BOND
     1    18    19 1
     2    18    17 1
     3    21    20 1
     4    21    22 1
     5    15    16 1
     6    15    14 1
     7    19    20 1
     8    16    17 1
     9    14    13 1
    10    13    12 1
    11    12    11 2
    12    11    10 1
    13    10     9 1
    14     9     7 1
    15     7     6 1
    16     7     8 2
    17     6     5 2
    18     5     4 1
    19     4     2 1
    20     2     3 1
    21     2     1 1
    22     4    23 1
    23     4    24 1
    24     6    25 1
    25     9    26 1
    26     9    27 1
    27    10    28 1
    28    10    29 1
    29    11    30 1
    30    12    31 1
    31    13    32 1
    32    13    33 1
    33    14    34 1
    34    14    35 1
    35    15    36 1
    36    15    37 1
    37    16    38 1
    38    16    39 1
    39    17    40 1
    40    17    41 1
    41    18    42 1
    42    18    43 1
    43    19    44 1
    44    19    45 1
    45    20    46 1
    46    20    47 1
    47    21    48 1
    48    21    49 1
    49    22    50 1
    50    22    51 1
    51    22    52 1
@<TRIPOS>SUBSTRUCTURE
     1 T65         1 TEMP              0 ****  ****    0 ROOT
