@<TRIPOS>MOLECULE
molecule
   40    41     1     0     0
SMALL
bcc


@<TRIPOS>ATOM
      1 C1           0.0000     0.0000     0.0000 c3         1 T68       0.334500
      2 N1          -0.4880     0.0580    -1.3800 ns         1 T68      -0.577900
      3 C2           1.5310     0.0000     0.0000 c3         1 T68       0.097100
      4 N2          -2.0630    -0.5430    -2.9940 ns         1 T68      -0.578500
      5 O2           2.0090    -1.1660    -0.6720 oh         1 T68      -0.590800
      6 C3           2.0340     0.0000     1.4470 c3         1 T68       0.111100
      7 N3          -3.0130    -0.4390    -5.6400 nb         1 T68      -0.692000
      8 O3           3.4610     0.0740     1.4570 oh         1 T68      -0.607800
      9 C4           1.4520     1.2130     2.1780 c3         1 T68       0.099100
     10 O4           1.8560     1.1830     3.5490 oh         1 T68      -0.599800
     11 C5          -0.0750     1.1670     2.0940 c3         1 T68       0.153100
     12 O5          -0.4750     1.1380     0.7230 os         1 T68      -0.418600
     13 C6          -0.6630     2.4070     2.7710 c3         1 T68       0.152400
     14 O6          -2.0880     2.3070     2.7950 oh         1 T68      -0.591800
     15 C7          -1.6140    -0.5970    -1.7240 c          1 T68       0.781100
     16 O7          -2.2240    -1.2360    -0.8910 o          1 T68      -0.578100
     17 C8          -3.1900    -1.1990    -3.3390 c          1 T68       0.580600
     18 O8          -3.8000    -1.8380    -2.5050 o          1 T68      -0.517100
     19 C9          -3.6840    -1.1390    -4.7340 ca         1 T68       0.366800
     20 C10         -4.8490    -1.8190    -5.0840 ca         1 T68      -0.184300
     21 C11         -5.2980    -1.7540    -6.3930 ca         1 T68      -0.102000
     22 C12         -4.5670    -1.0110    -7.3080 ca         1 T68      -0.231300
     23 C13         -3.4170    -0.3600    -6.8900 ca         1 T68       0.414200
     24 H1          -0.3590    -0.9040     0.4770 h2         1 T68       0.099700
     25 HN1         -0.0090     0.6190    -2.0560 hn         1 T68       0.310500
     26 H2           1.8910     0.8880    -0.5060 h1         1 T68       0.049700
     27 HN2         -1.5460    -0.0390    -3.6870 hn         1 T68       0.333500
     28 HO2          2.7590    -0.9420    -1.1970 ho         1 T68       0.412000
     29 H3           1.7100    -0.9080     1.9410 h1         1 T68       0.067700
     30 HO3          3.8100    -0.6600     1.9350 ho         1 T68       0.417000
     31 H4           1.8110     2.1220     1.7100 h1         1 T68       0.053700
     32 HO4          2.5300     1.8270     3.6920 ho         1 T68       0.413000
     33 H5          -0.4350     0.2740     2.5910 h1         1 T68       0.070700
     34 H6          -0.2880     2.4760     3.7850 h1         1 T68       0.034200
     35 H6A         -0.3730     3.2920     2.2170 h1         1 T68       0.034200
     36 HO6         -2.4400     2.9750     3.3600 ho         1 T68       0.402000
     37 H10         -5.3960    -2.3900    -4.3430 ha         1 T68       0.169000
     38 H11         -6.2000    -2.2720    -6.6960 ha         1 T68       0.146000
     39 H12         -4.8910    -0.9400    -8.3390 ha         1 T68       0.142000
     40 H13         -2.8430     0.2210    -7.6010 h4         1 T68       0.026100
@<TRIPOS>BOND
     1     1     2 1
     2     1     3 1
     3     1    12 1
     4     2    15 1
     5     3     5 1
     6     3     6 1
     7     4    15 1
     8     4    17 1
     9     6     8 1
    10     6     9 1
    11     7    19 ar
    12     7    23 ar
    13     9    10 1
    14     9    11 1
    15    11    12 1
    16    11    13 1
    17    13    14 1
    18    15    16 2
    19    17    18 2
    20    17    19 1
    21    19    20 ar
    22    20    21 ar
    23    21    22 ar
    24    22    23 ar
    25     1    24 1
    26     2    25 1
    27     3    26 1
    28     4    27 1
    29     5    28 1
    30     6    29 1
    31     8    30 1
    32     9    31 1
    33    10    32 1
    34    11    33 1
    35    13    34 1
    36    13    35 1
    37    14    36 1
    38    20    37 1
    39    21    38 1
    40    22    39 1
    41    23    40 1
@<TRIPOS>SUBSTRUCTURE
     1 T68         1 TEMP              0 ****  ****    0 ROOT
