@<TRIPOS>MOLECULE
molecule
   13    13     1     0     0
SMALL
bcc


@<TRIPOS>ATOM
      1 Cl2          0.0000     0.0000     0.0000 cl         1 T6C      -0.071900
      2 C2           1.7360     0.0000     0.0000 ca         1 T6C       0.014400
      3 C1           2.4310     0.0000     1.2010 ca         1 T6C       0.119100
      4 C6           3.8180     0.0010     1.1980 ca         1 T6C       0.014400
      5 Cl6          4.6910     0.0000     2.6990 cl         1 T6C      -0.071900
      6 O1           1.7530    -0.0010     2.3790 oh         1 T6C      -0.498100
      7 C3           2.4280    -0.0040    -1.1980 ca         1 T6C      -0.106000
      8 C4           3.8120    -0.0040    -1.1990 ca         1 T6C       0.032400
      9 Cl4          4.6780    -0.0100    -2.7030 cl         1 T6C      -0.084400
     10 C5           4.5060     0.0010    -0.0020 ca         1 T6C      -0.106000
     11 H1           1.5960     0.8880     2.6520 ho         1 T6C       0.430000
     12 H2           1.8860    -0.0090    -2.1360 ha         1 T6C       0.164000
     13 H3           5.5900     0.0020    -0.0050 ha         1 T6C       0.164000
@<TRIPOS>BOND
     1     1     2 1
     2     9     8 1
     3     7     2 ar
     4     7     8 ar
     5     2     3 ar
     6     8    10 ar
     7     3     6 1
     8     3     4 ar
     9    10     4 ar
    10     4     5 1
    11     6    11 1
    12     7    12 1
    13    10    13 1
@<TRIPOS>SUBSTRUCTURE
     1 T6C         1 TEMP              0 ****  ****    0 ROOT
