@<TRIPOS>MOLECULE
T6C
   13    13     1     0     0
SMALL
bcc


@<TRIPOS>ATOM
      1 Cl2         0.0760    0.2880    0.0970 cl        1 T6C     -0.064400
      2 C2          1.7730    0.1590    0.0670 ca        1 T6C     -0.031600
      3 C1          2.5090    0.1070    1.2670 ca        1 T6C      0.146100
      4 C6          3.9160   -0.0010    1.2100 ca        1 T6C     -0.031600
      5 Cl6         4.8550   -0.0670    2.6200 cl        1 T6C     -0.064400
      6 O1          1.9300    0.1550    2.5080 oh        1 T6C     -0.472100
      7 C3          2.4220    0.1050   -1.1680 ca        1 T6C     -0.084000
      8 C4          3.8130   -0.0010   -1.2070 ca        1 T6C     -0.007600
      9 Cl4         4.6070   -0.0660   -2.7060 cl        1 T6C     -0.075400
     10 C5          4.5600   -0.0540   -0.0270 ca        1 T6C     -0.084000
     11 H1          0.9670    0.2280    2.3960 ho        1 T6C      0.436000
     12 H2          1.8370    0.1470   -2.1020 ha        1 T6C      0.166500
     13 H3          5.6590   -0.1380   -0.0700 ha        1 T6C      0.166500
@<TRIPOS>BOND
     1    1    2 1   
     2    2    3 ar  
     3    2    7 ar  
     4    3    4 ar  
     5    3    6 1   
     6    4    5 1   
     7    4   10 ar  
     8    6   11 1   
     9    7    8 ar  
    10    7   12 1   
    11    8    9 1   
    12    8   10 ar  
    13   10   13 1   
@<TRIPOS>SUBSTRUCTURE
     1 T6C         1 TEMP              0 ****  ****    0 ROOT
