@<TRIPOS>MOLECULE
molecule
   44    47     1     0     0
SMALL
bcc


@<TRIPOS>ATOM
      1 C4           0.0000     0.0000     0.0000 ca         1 T6E       0.767200
      2 C5           1.4170     0.0000     0.0000 ca         1 T6E      -0.365400
      3 C6           2.0640     0.0000     1.2360 ca         1 T6E       0.536600
      4 N1           1.3280    -0.0020     2.3560 nb         1 T6E      -0.749000
      5 N3          -0.6420    -0.0020     1.1580 nb         1 T6E      -0.813000
      6 NBF         -0.7020     0.0060    -1.1920 nv         1 T6E      -1.012500
      7 C2           0.0160    -0.0010     2.3030 ca         1 T6E       0.726900
      8 CBB          2.3610     0.0010    -1.1110 cc         1 T6E      -0.003400
      9 CAZ          1.9320     0.0020    -2.5290 ca         1 T6E      -0.069800
     10 CAO          1.1340     1.0370    -3.0160 ca         1 T6E      -0.094000
     11 CAM          0.7360     1.0370    -4.3370 ca         1 T6E      -0.152000
     12 CAN          2.3290    -1.0290    -3.3800 ca         1 T6E      -0.094000
     13 CAL          1.9280    -1.0240    -4.7000 ca         1 T6E      -0.152000
     14 CAX          1.1290     0.0050    -5.1820 ca         1 T6E       0.070600
     15 NAT          0.7230     0.0070    -6.5220 ns         1 T6E      -0.481100
     16 CAV          0.4480    -1.1580    -7.1430 c          1 T6E       0.785100
     17 OAD          0.6280    -2.2130    -6.5650 o          1 T6E      -0.635100
     18 NAU         -0.0280    -1.1520    -8.4040 ns         1 T6E      -0.479100
     19 CAY         -0.3860    -2.3560    -9.0230 ca         1 T6E       0.035600
     20 CAP          0.2010    -3.5470    -8.6180 ca         1 T6E      -0.074000
     21 CAJ         -1.3360    -2.3620   -10.0390 ca         1 T6E       0.114900
     22 CAH         -1.6880    -3.5540   -10.6470 ca         1 T6E      -0.151000
     23 CAK         -1.0970    -4.7360   -10.2450 ca         1 T6E      -0.079000
     24 CBA         -0.1560    -4.7330    -9.2300 ca         1 T6E      -0.177300
     25 CBG          0.4810    -6.0270    -8.7910 c3         1 T6E       0.679200
     26 FAF         -0.2800    -6.5980    -7.7670 f          1 T6E      -0.220967
     27 FAG          0.5400    -6.9090    -9.8760 f          1 T6E      -0.220967
     28 FAE          1.7760    -5.7740    -8.3250 f          1 T6E      -0.220967
     29 F1          -1.9140    -1.2050   -10.4310 f          1 T6E      -0.139900
     30 S            3.8050    -0.0000     1.0010 ss         1 T6E      -0.132900
     31 C8           3.6420     0.0010    -0.7450 cd         1 T6E      -0.099400
     32 HBF1        -1.5930     0.4580    -1.2440 hn         1 T6E       0.448800
     33 HBF2        -0.3580    -0.5110    -1.9770 hn         1 T6E       0.448800
     34 H2          -0.5460    -0.0030     3.2300 h5         1 T6E       0.062100
     35 H8           4.4750    -0.0020    -1.4370 h4         1 T6E       0.179000
     36 HAO          0.8280     1.8420    -2.3580 ha         1 T6E       0.146500
     37 HAN          2.9520    -1.8310    -3.0050 ha         1 T6E       0.146500
     38 HAM          0.1150     1.8390    -4.7150 ha         1 T6E       0.151500
     39 HAL          2.2350    -1.8260    -5.3610 ha         1 T6E       0.151500
     40 HAT          0.5270     0.8740    -6.9810 hn         1 T6E       0.322500
     41 HAU         -0.1720    -0.2830    -8.8790 hn         1 T6E       0.331500
     42 HAP          0.9380    -3.5470    -7.8240 ha         1 T6E       0.204000
     43 HAH         -2.4250    -3.5590   -11.4400 ha         1 T6E       0.156000
     44 HAK         -1.3730    -5.6680   -10.7220 ha         1 T6E       0.154000
@<TRIPOS>BOND
     1     1     2 ar
     2     1     5 ar
     3     1     6 1
     4     2     3 ar
     5     2     8 1
     6     3     4 ar
     7     3    30 1
     8     4     7 ar
     9     5     7 ar
    10     8     9 1
    11     8    31 2
    12     9    10 ar
    13     9    12 ar
    14    10    11 ar
    15    11    14 ar
    16    12    13 ar
    17    13    14 ar
    18    14    15 1
    19    15    16 1
    20    16    17 2
    21    16    18 1
    22    18    19 1
    23    19    20 ar
    24    19    21 ar
    25    20    24 ar
    26    21    22 ar
    27    21    29 1
    28    22    23 ar
    29    23    24 ar
    30    24    25 1
    31    25    26 1
    32    25    27 1
    33    25    28 1
    34    30    31 1
    35     6    32 1
    36     6    33 1
    37     7    34 1
    38    31    35 1
    39    10    36 1
    40    12    37 1
    41    11    38 1
    42    13    39 1
    43    15    40 1
    44    18    41 1
    45    20    42 1
    46    22    43 1
    47    23    44 1
@<TRIPOS>SUBSTRUCTURE
     1 T6E         1 TEMP              0 ****  ****    0 ROOT
