@<TRIPOS>MOLECULE
T6E
   44    47     1     0     0
SMALL
bcc


@<TRIPOS>ATOM
      1 C4           0.0000     0.0000     0.0000 ca         1 T6E       0.578200
      2 C5           1.4170     0.0000     0.0000 ca         1 T6E      -0.365400
      3 C6           2.0640     0.0000     1.2360 ca         1 T6E       0.549600
      4 N1           1.3280    -0.0020     2.3560 nb         1 T6E      -0.634000
      5 N3          -0.6420    -0.0020     1.1580 nb         1 T6E      -0.709000
      6 NBF         -0.7020     0.0060    -1.1920 nv         1 T6E      -0.547500
      7 C2           0.0160    -0.0010     2.3030 ca         1 T6E       0.678900
      8 CBB          2.3610     0.0010    -1.1110 cc         1 T6E       0.012600
      9 CAZ          1.9320     0.0020    -2.5290 ca         1 T6E      -0.063800
     10 CAO          1.1340     1.0370    -3.0160 ca         1 T6E      -0.072000
     11 CAM          0.7360     1.0370    -4.3370 ca         1 T6E      -0.121500
     12 CAN          2.3290    -1.0290    -3.3800 ca         1 T6E      -0.072000
     13 CAL          1.9280    -1.0240    -4.7000 ca         1 T6E      -0.121500
     14 CAX          1.1290     0.0050    -5.1820 ca         1 T6E      -0.078400
     15 NAT          0.7230     0.0070    -6.5220 ns         1 T6E      -0.039100
     16 CAV          0.4480    -1.1580    -7.1430 c          1 T6E       0.555100
     17 OAD          0.6280    -2.2130    -6.5650 o          1 T6E      -0.684100
     18 NAU         -0.0280    -1.1520    -8.4040 ns         1 T6E      -0.032100
     19 CAY         -0.3860    -2.3560    -9.0230 ca         1 T6E      -0.104400
     20 CAP          0.2010    -3.5470    -8.6180 ca         1 T6E      -0.050000
     21 CAJ         -1.3360    -2.3620   -10.0390 ca         1 T6E       0.087900
     22 CAH         -1.6880    -3.5540   -10.6470 ca         1 T6E      -0.116000
     23 CAK         -1.0970    -4.7360   -10.2450 ca         1 T6E      -0.039000
     24 CBA         -0.1560    -4.7330    -9.2300 ca         1 T6E      -0.198300
     25 CBG          0.4810    -6.0270    -8.7910 c3         1 T6E       0.643200
     26 FAF         -0.2800    -6.5980    -7.7670 f          1 T6E      -0.205967
     27 FAG          0.5400    -6.9090    -9.8760 f          1 T6E      -0.205967
     28 FAE          1.7760    -5.7740    -8.3250 f          1 T6E      -0.205967
     29 F1          -1.9140    -1.2050   -10.4310 f          1 T6E      -0.125900
     30 S            3.8050    -0.0000     1.0010 ss         1 T6E      -0.279900
     31 C8           3.6420     0.0010    -0.7450 cd         1 T6E      -0.021400
     32 HBF1        -1.5930     0.4580    -1.2440 hn         1 T6E       0.286300
     33 HBF2        -0.3580    -0.5110    -1.9770 hn         1 T6E       0.286300
     34 H2          -0.5460    -0.0030     3.2300 h5         1 T6E      -0.001900
     35 H8           4.4750    -0.0020    -1.4370 h4         1 T6E       0.156000
     36 HAO          0.8280     1.8420    -2.3580 ha         1 T6E       0.116500
     37 HAN          2.9520    -1.8310    -3.0050 ha         1 T6E       0.116500
     38 HAM          0.1150     1.8390    -4.7150 ha         1 T6E       0.129500
     39 HAL          2.2350    -1.8260    -5.3610 ha         1 T6E       0.129500
     40 HAT          0.5270     0.8740    -6.9810 hn         1 T6E       0.163500
     41 HAU         -0.1720    -0.2830    -8.8790 hn         1 T6E       0.171500
     42 HAP          0.9380    -3.5470    -7.8240 ha         1 T6E       0.185000
     43 HAH         -2.4250    -3.5590   -11.4400 ha         1 T6E       0.126000
     44 HAK         -1.3730    -5.6680   -10.7220 ha         1 T6E       0.122000
@<TRIPOS>BOND
     1     1     2 ar  
     2     1     5 ar  
     3     1     6 1   
     4     2     3 ar  
     5     2     8 1   
     6     3     4 ar  
     7     3    30 1   
     8     4     7 ar  
     9     5     7 ar  
    10     6    32 1   
    11     6    33 1   
    12     7    34 1   
    13     8     9 1   
    14     8    31 2   
    15     9    10 ar  
    16     9    12 ar  
    17    10    11 ar  
    18    10    36 1   
    19    11    14 ar  
    20    11    38 1   
    21    12    13 ar  
    22    12    37 1   
    23    13    14 ar  
    24    13    39 1   
    25    14    15 1   
    26    15    16 1   
    27    15    40 1   
    28    16    17 2   
    29    16    18 1   
    30    18    19 1   
    31    18    41 1   
    32    19    20 ar  
    33    19    21 ar  
    34    20    24 ar  
    35    20    42 1   
    36    21    22 ar  
    37    21    29 1   
    38    22    23 ar  
    39    22    43 1   
    40    23    24 ar  
    41    23    44 1   
    42    24    25 1   
    43    25    26 1   
    44    25    27 1   
    45    25    28 1   
    46    30    31 1   
    47    31    35 1   
@<TRIPOS>SUBSTRUCTURE
     1 T6E         1 TEMP              0 ****  ****    0 ROOT
