@<TRIPOS>MOLECULE
T6Q
   59    62     1     0     0
SMALL
bcc


@<TRIPOS>ATOM
      1 C01          0.0000     0.0000     0.0000 c3         1 T6Q       0.191100
      2 N02          1.4660     0.0000     0.0000 nu         1 T6Q      -0.438900
      3 C03          2.1570     0.0000     1.1950 cc         1 T6Q       0.580300
      4 N04          1.6040    -0.0020     2.3730 nd         1 T6Q      -0.688000
      5 C05          2.4070    -0.0020     3.4100 cd         1 T6Q       0.468600
      6 C06          1.9060    -0.0050     4.8320 c3         1 T6Q      -0.029400
      7 C07          3.7220    -0.0030     3.0960 cc         1 T6Q      -0.292900
      8 C08          4.8400    -0.0030     4.0500 ca         1 T6Q       0.638800
      9 N09          4.6130    -0.0050     5.3640 nb         1 T6Q      -0.704000
     10 C10          5.6180    -0.0070     6.2250 ca         1 T6Q       0.727900
     11 N11          5.3400    -0.0080     7.5780 nu         1 T6Q      -0.275300
     12 C12          6.3810    -0.1010     8.5060 ca         1 T6Q       0.009600
     13 C13          7.6020     0.5110     8.2450 ca         1 T6Q      -0.146000
     14 C14          8.6320     0.4200     9.1620 ca         1 T6Q      -0.052000
     15 C15          8.4520    -0.2800    10.3390 ca         1 T6Q      -0.182000
     16 C16          7.2350    -0.8940    10.6060 ca         1 T6Q       0.033600
     17 N17          7.0560    -1.6020    11.7970 nh         1 T6Q      -0.359000
     18 C18          5.9000    -1.0960    12.5370 c3         1 T6Q       0.134800
     19 C19          5.2150    -2.2500    13.2340 c3         1 T6Q      -0.049400
     20 C20          5.7750    -2.4000    14.6580 c3         1 T6Q       0.067000
     21 N21          7.2360    -2.1870    14.6850 n          1 T6Q      -0.164800
     22 C22          7.7680    -1.4680    15.6930 c          1 T6Q       0.577100
     23 C23          9.2630    -1.3090    15.7990 c3         1 T6Q      -0.076100
     24 O24          7.0430    -0.9490    16.5160 o          1 T6Q      -0.648100
     25 C25          8.1190    -2.7210    13.6690 c3         1 T6Q       0.052000
     26 C26          8.2690    -1.6980    12.5170 c3         1 T6Q       0.104800
     27 C27          6.1960    -0.7990     9.6900 ca         1 T6Q      -0.152000
     28 N28          6.8850    -0.0070     5.8300 nb         1 T6Q      -0.706000
     29 C29          7.2030    -0.0050     4.5480 ca         1 T6Q       0.529200
     30 C30          6.1810    -0.0090     3.5930 ca         1 T6Q      -0.300600
     31 C31          6.4820    -0.0140     2.1920 cg         1 T6Q       0.254800
     32 N32          6.7010    -0.0170     1.0770 n1         1 T6Q      -0.376800
     33 S33          3.8600    -0.0080     1.3390 ss         1 T6Q      -0.290300
     34 H011        -0.3610     0.8750     0.5270 h1         1 T6Q       0.014700
     35 H012        -0.3610     0.0190    -1.0210 h1         1 T6Q       0.014700
     36 H013        -0.3610    -0.8940     0.4940 h1         1 T6Q       0.014700
     37 H02          1.9660    -0.0260    -0.8660 hn         1 T6Q       0.297800
     38 H061         2.2190     0.9070     5.3270 hc         1 T6Q       0.021700
     39 H062         2.3150    -0.8590     5.3580 hc         1 T6Q       0.021700
     40 H063         0.8240    -0.0640     4.8340 hc         1 T6Q       0.021700
     41 H11          4.4320     0.2620     7.9020 hn         1 T6Q       0.293800
     42 H13          7.7840     0.9670     7.2790 ha         1 T6Q       0.152000
     43 H27          5.2850    -1.3640     9.8500 ha         1 T6Q       0.122000
     44 H14          9.5830     0.8980     8.9570 ha         1 T6Q       0.102000
     45 H15          9.2610    -0.3500    11.0560 ha         1 T6Q       0.120000
     46 H181         6.2300    -0.3030    13.1970 h1         1 T6Q       0.027700
     47 H182         5.1840    -0.6930    11.8300 h1         1 T6Q       0.027700
     48 H261         8.6000    -0.7000    12.7750 h1         1 T6Q       0.027700
     49 H262         9.0120    -2.1660    11.8830 h1         1 T6Q       0.027700
     50 H191         4.1750    -1.9940    13.3900 hc         1 T6Q       0.028700
     51 H192         5.2730    -3.1240    12.5960 hc         1 T6Q       0.028700
     52 H201         5.8720    -3.4550    14.8840 h1         1 T6Q       0.031700
     53 H202         5.0770    -1.9530    15.3550 h1         1 T6Q       0.031700
     54 H251         9.0850    -2.9210    14.1190 h1         1 T6Q       0.035700
     55 H252         7.7020    -3.6500    13.3000 h1         1 T6Q       0.035700
     56 H231         9.6220    -0.7150    14.9670 hc         1 T6Q       0.024700
     57 H232         9.5090    -0.8120    16.7290 hc         1 T6Q       0.024700
     58 H233         9.7330    -2.2840    15.7750 hc         1 T6Q       0.024700
     59 H29          8.2440    -0.0050     4.2470 h4         1 T6Q      -0.009900
@<TRIPOS>BOND
     1     1     2 1   
     2     1    34 1   
     3     1    35 1   
     4     1    36 1   
     5     2     3 1   
     6     2    37 1   
     7     3     4 2   
     8     3    33 1   
     9     4     5 1   
    10     5     6 1   
    11     5     7 2   
    12     6    38 1   
    13     6    39 1   
    14     6    40 1   
    15     7     8 1   
    16     7    33 1   
    17     8     9 ar  
    18     8    30 ar  
    19     9    10 ar  
    20    10    11 1   
    21    10    28 ar  
    22    11    12 1   
    23    11    41 1   
    24    12    13 ar  
    25    12    27 ar  
    26    13    14 ar  
    27    13    42 1   
    28    14    15 ar  
    29    14    44 1   
    30    15    16 ar  
    31    15    45 1   
    32    16    17 1   
    33    16    27 ar  
    34    17    18 1   
    35    17    26 1   
    36    18    19 1   
    37    18    46 1   
    38    18    47 1   
    39    19    20 1   
    40    19    50 1   
    41    19    51 1   
    42    20    21 1   
    43    20    52 1   
    44    20    53 1   
    45    21    22 1   
    46    21    25 1   
    47    22    23 1   
    48    22    24 2   
    49    23    56 1   
    50    23    57 1   
    51    23    58 1   
    52    25    26 1   
    53    25    54 1   
    54    25    55 1   
    55    26    48 1   
    56    26    49 1   
    57    27    43 1   
    58    28    29 ar  
    59    29    30 ar  
    60    29    59 1   
    61    30    31 1   
    62    31    32 3   
@<TRIPOS>SUBSTRUCTURE
     1 T6Q         1 TEMP              0 ****  ****    0 ROOT
