@<TRIPOS>MOLECULE
molecule
   59    62     1     0     0
SMALL
bcc


@<TRIPOS>ATOM
      1 C01          0.0000     0.0000     0.0000 c3         1 T6Q       0.230100
      2 N02          1.4660     0.0000     0.0000 nu         1 T6Q      -0.886900
      3 C03          2.1570     0.0000     1.1950 cc         1 T6Q       0.731300
      4 N04          1.6040    -0.0020     2.3730 nd         1 T6Q      -0.787000
      5 C05          2.4070    -0.0020     3.4100 cd         1 T6Q       0.504600
      6 C06          1.9060    -0.0050     4.8320 c3         1 T6Q      -0.115400
      7 C07          3.7220    -0.0030     3.0960 cc         1 T6Q      -0.317900
      8 C08          4.8400    -0.0030     4.0500 ca         1 T6Q       0.668800
      9 N09          4.6130    -0.0050     5.3640 nb         1 T6Q      -0.806000
     10 C10          5.6180    -0.0070     6.2250 ca         1 T6Q       0.963900
     11 N11          5.3400    -0.0080     7.5780 nu         1 T6Q      -0.743300
     12 C12          6.3810    -0.1010     8.5060 ca         1 T6Q       0.165600
     13 C13          7.6020     0.5110     8.2450 ca         1 T6Q      -0.158000
     14 C14          8.6320     0.4200     9.1620 ca         1 T6Q      -0.091000
     15 C15          8.4520    -0.2800    10.3390 ca         1 T6Q      -0.200000
     16 C16          7.2350    -0.8940    10.6060 ca         1 T6Q       0.125600
     17 N17          7.0560    -1.6020    11.7970 nh         1 T6Q      -0.622000
     18 C18          5.9000    -1.0960    12.5370 c3         1 T6Q       0.183800
     19 C19          5.2150    -2.2500    13.2340 c3         1 T6Q      -0.102400
     20 C20          5.7750    -2.4000    14.6580 c3         1 T6Q       0.111000
     21 N21          7.2360    -2.1870    14.6850 n          1 T6Q      -0.495800
     22 C22          7.7680    -1.4680    15.6930 c          1 T6Q       0.648100
     23 C23          9.2630    -1.3090    15.7990 c3         1 T6Q      -0.172100
     24 O24          7.0430    -0.9490    16.5160 o          1 T6Q      -0.612100
     25 C25          8.1190    -2.7210    13.6690 c3         1 T6Q       0.110000
     26 C26          8.2690    -1.6980    12.5170 c3         1 T6Q       0.151800
     27 C27          6.1960    -0.7990     9.6900 ca         1 T6Q      -0.180000
     28 N28          6.8850    -0.0070     5.8300 nb         1 T6Q      -0.804000
     29 C29          7.2030    -0.0050     4.5480 ca         1 T6Q       0.543200
     30 C30          6.1810    -0.0090     3.5930 ca         1 T6Q      -0.346600
     31 C31          6.4820    -0.0140     2.1920 cg         1 T6Q       0.256800
     32 N32          6.7010    -0.0170     1.0770 n1         1 T6Q      -0.365800
     33 S33          3.8600    -0.0080     1.3390 ss         1 T6Q      -0.179300
     34 H011        -0.3610     0.8750     0.5270 h1         1 T6Q       0.045367
     35 H012        -0.3610     0.0190    -1.0210 h1         1 T6Q       0.045367
     36 H013        -0.3610    -0.8940     0.4940 h1         1 T6Q       0.045367
     37 H02          1.9660    -0.0260    -0.8660 hn         1 T6Q       0.455800
     38 H061         2.2190     0.9070     5.3270 hc         1 T6Q       0.059033
     39 H062         2.3150    -0.8590     5.3580 hc         1 T6Q       0.059033
     40 H063         0.8240    -0.0640     4.8340 hc         1 T6Q       0.059033
     41 H11          4.4320     0.2620     7.9020 hn         1 T6Q       0.465800
     42 H13          7.7840     0.9670     7.2790 ha         1 T6Q       0.171000
     43 H27          5.2850    -1.3640     9.8500 ha         1 T6Q       0.143000
     44 H14          9.5830     0.8980     8.9570 ha         1 T6Q       0.133000
     45 H15          9.2610    -0.3500    11.0560 ha         1 T6Q       0.134000
     46 H181         6.2300    -0.3030    13.1970 h1         1 T6Q       0.050200
     47 H182         5.1840    -0.6930    11.8300 h1         1 T6Q       0.050200
     48 H261         8.6000    -0.7000    12.7750 h1         1 T6Q       0.046200
     49 H262         9.0120    -2.1660    11.8830 h1         1 T6Q       0.046200
     50 H191         4.1750    -1.9940    13.3900 hc         1 T6Q       0.057200
     51 H192         5.2730    -3.1240    12.5960 hc         1 T6Q       0.057200
     52 H201         5.8720    -3.4550    14.8840 h1         1 T6Q       0.062200
     53 H202         5.0770    -1.9530    15.3550 h1         1 T6Q       0.062200
     54 H251         9.0850    -2.9210    14.1190 h1         1 T6Q       0.062700
     55 H252         7.7020    -3.6500    13.3000 h1         1 T6Q       0.062700
     56 H231         9.6220    -0.7150    14.9670 hc         1 T6Q       0.059367
     57 H232         9.5090    -0.8120    16.7290 hc         1 T6Q       0.059367
     58 H233         9.7330    -2.2840    15.7750 hc         1 T6Q       0.059367
     59 H29          8.2440    -0.0050     4.2470 h4         1 T6Q       0.039100
@<TRIPOS>BOND
     1     1     2 1
     2     2     3 1
     3     3     4 2
     4     3    33 1
     5     4     5 1
     6     5     6 1
     7     5     7 2
     8     7     8 1
     9     7    33 1
    10     8     9 ar
    11     8    30 ar
    12     9    10 ar
    13    10    11 1
    14    10    28 ar
    15    11    12 1
    16    12    13 ar
    17    12    27 ar
    18    13    14 ar
    19    14    15 ar
    20    15    16 ar
    21    16    17 1
    22    16    27 ar
    23    17    18 1
    24    17    26 1
    25    18    19 1
    26    19    20 1
    27    20    21 1
    28    21    22 1
    29    21    25 1
    30    22    23 1
    31    22    24 2
    32    25    26 1
    33    28    29 ar
    34    29    30 ar
    35    30    31 1
    36    31    32 3
    37     1    34 1
    38     1    35 1
    39     1    36 1
    40     2    37 1
    41     6    38 1
    42     6    39 1
    43     6    40 1
    44    11    41 1
    45    13    42 1
    46    27    43 1
    47    14    44 1
    48    15    45 1
    49    18    46 1
    50    18    47 1
    51    26    48 1
    52    26    49 1
    53    19    50 1
    54    19    51 1
    55    20    52 1
    56    20    53 1
    57    25    54 1
    58    25    55 1
    59    23    56 1
    60    23    57 1
    61    23    58 1
    62    29    59 1
@<TRIPOS>SUBSTRUCTURE
     1 T6Q         1 TEMP              0 ****  ****    0 ROOT
