@<TRIPOS>MOLECULE
molecule
   42    44     1     0     0
SMALL
bcc


@<TRIPOS>ATOM
      1 O1           0.0000     0.0000     0.0000 o          1 T73      -0.554000
      2 C8           1.2150     0.0000     0.0000 c          1 T73       0.648700
      3 O            1.8890     0.0000     1.1670 os         1 T73      -0.420900
      4 C6           1.0980     0.0000     2.3840 c3         1 T73       0.152100
      5 C7           0.9060     1.4440     2.9030 c3         1 T73      -0.093400
      6 C2           1.5740     1.4490     4.3110 c3         1 T73      -0.072700
      7 C5           1.8640    -0.7310     3.5300 c3         1 T73      -0.063000
      8 C15          1.7830    -2.2590     3.5200 c3         1 T73      -0.063100
      9 C4           3.2940    -0.1090     3.5020 c3         1 T73      -0.072400
     10 C3           3.1010     1.3340     4.0200 c3         1 T73      -0.079400
     11 C1           1.2590    -0.0130     4.7870 c3         1 T73      -0.067000
     12 C16          2.0110    -0.3730     6.0700 c3         1 T73      -0.078600
     13 C           -0.2450    -0.2610     4.9220 c3         1 T73      -0.078600
     14 C9           1.9520    -0.0070    -1.2780 ca         1 T73      -0.145600
     15 C14          1.2550    -0.0060    -2.4890 ca         1 T73      -0.059500
     16 C13          1.9460    -0.0120    -3.6800 ca         1 T73      -0.172000
     17 C12          3.3360    -0.0190    -3.6770 ca         1 T73       0.136100
     18 O2           4.0140    -0.0250    -4.8530 oh         1 T73      -0.522100
     19 C11          4.0330    -0.0180    -2.4750 ca         1 T73      -0.172000
     20 C10          3.3500    -0.0070    -1.2800 ca         1 T73      -0.059500
     21 H1           0.1370    -0.4700     2.2120 h1         1 T73       0.077700
     22 H2           1.4020     2.1490     2.2470 hc         1 T73       0.057700
     23 H3          -0.1480     1.6790     2.9840 hc         1 T73       0.057700
     24 H4           1.2720     2.2430     4.9830 hc         1 T73       0.076700
     25 H5           1.9960    -2.6390     4.5110 hc         1 T73       0.040033
     26 H6           2.5070    -2.6550     2.8180 hc         1 T73       0.040033
     27 H7           0.7870    -2.5660     3.2220 hc         1 T73       0.040033
     28 H8           3.9580    -0.6600     4.1560 hc         1 T73       0.050700
     29 H9           3.6820    -0.0980     2.4900 hc         1 T73       0.050700
     30 H10          3.6710     1.4890     4.9280 hc         1 T73       0.044200
     31 H11          3.3960     2.0500     3.2620 hc         1 T73       0.044200
     32 H12          3.0420    -0.6040     5.8320 hc         1 T73       0.037867
     33 H13          1.5460    -1.2360     6.5310 hc         1 T73       0.037867
     34 H14          1.9770     0.4640     6.7560 hc         1 T73       0.037867
     35 H15         -0.7580     0.6860     5.0400 hc         1 T73       0.037867
     36 H16         -0.4320    -0.8830     5.7880 hc         1 T73       0.037867
     37 H17         -0.6100    -0.7600     4.0320 hc         1 T73       0.037867
     38 H18          0.1710    -0.0010    -2.4910 ha         1 T73       0.155000
     39 H19          1.4060    -0.0120    -4.6190 ha         1 T73       0.146500
     40 H20          4.1850    -0.9150    -5.1130 ho         1 T73       0.425000
     41 H21          5.1170    -0.0210    -2.4780 ha         1 T73       0.146500
     42 H22          3.8940    -0.0060    -0.3430 ha         1 T73       0.155000
@<TRIPOS>BOND
     1    18    17 1
     2    17    16 ar
     3    17    19 ar
     4    16    15 ar
     5    19    20 ar
     6    15    14 ar
     7    20    14 ar
     8    14     2 1
     9     2     3 1
    10     2     1 2
    11     3     4 1
    12     5     4 1
    13     5     6 1
    14     4     7 1
    15     6    10 1
    16     6    11 1
    17    13    11 1
    18    10     9 1
    19     7    11 1
    20     7     9 1
    21     7     8 1
    22    11    12 1
    23     4    21 1
    24     5    22 1
    25     5    23 1
    26     6    24 1
    27     8    25 1
    28     8    26 1
    29     8    27 1
    30     9    28 1
    31     9    29 1
    32    10    30 1
    33    10    31 1
    34    12    32 1
    35    12    33 1
    36    12    34 1
    37    13    35 1
    38    13    36 1
    39    13    37 1
    40    15    38 1
    41    16    39 1
    42    18    40 1
    43    19    41 1
    44    20    42 1
@<TRIPOS>SUBSTRUCTURE
     1 T73         1 TEMP              0 ****  ****    0 ROOT
