@<TRIPOS>MOLECULE
molecule
   76    80     1     0     0
SMALL
bcc


@<TRIPOS>ATOM
      1 C38          0.0000     0.0000     0.0000 c3         1 T74       0.125700
      2 O37          1.4280     0.0000     0.0000 os         1 T74      -0.423600
      3 C25          2.0100     0.0000     1.3060 c3         1 T74       0.146800
      4 C26          1.5580     1.2490     2.0650 c3         1 T74      -0.122100
      5 C27          1.5570    -1.2490     2.0650 c3         1 T74      -0.122100
      6 C24          3.5340    -0.0000     1.1860 c3         1 T74      -0.088400
      7 C23          3.9950     1.3070     0.5380 c3         1 T74       0.086300
      8 N5           5.4550     1.3070     0.4230 na         1 T74      -0.030800
      9 C9           6.1610     0.8370    -0.6440 ca         1 T74       0.566800
     10 C8           7.5280     1.0260    -0.3430 ca         1 T74      -0.567500
     11 C7           7.5760     1.6430     0.9820 cc         1 T74       0.643800
     12 N28          8.7270     2.0100     1.6810 nu         1 T74      -0.742600
     13 C29          8.6270     2.4980     2.9860 ca         1 T74       0.137600
     14 C34          9.0520     1.7200     4.0550 ca         1 T74      -0.072800
     15 C36          9.6240     0.3480     3.8080 c3         1 T74      -0.045800
     16 C33          8.9510     2.2060     5.3430 ca         1 T74      -0.130500
     17 C32          8.4260     3.4650     5.5710 ca         1 T74      -0.120000
     18 C31          8.0010     4.2420     4.5090 ca         1 T74      -0.130500
     19 C30          8.1060     3.7660     3.2170 ca         1 T74      -0.072800
     20 C35          7.6480     4.6160     2.0600 c3         1 T74      -0.045800
     21 N6           6.3430     1.7940     1.3880 nd         1 T74      -0.570100
     22 C4           8.4820     0.6250    -1.2800 ca         1 T74       0.561200
     23 N1           8.0690     0.0840    -2.4110 nb         1 T74      -0.814000
     24 N3           5.8340     0.2820    -1.8080 nb         1 T74      -0.831000
     25 C2           6.7740    -0.0810    -2.6630 ca         1 T74       0.975900
     26 N10          6.3970    -0.6550    -3.8660 nu         1 T74      -0.749300
     27 C11          7.3680    -0.9950    -4.8150 ca         1 T74       0.133600
     28 C16          7.1910    -2.1130    -5.6200 ca         1 T74      -0.120500
     29 C15          8.1500    -2.4490    -6.5560 ca         1 T74      -0.151500
     30 C14          9.2890    -1.6670    -6.6940 ca         1 T74       0.086600
     31 C13          9.4660    -0.5490    -5.8890 ca         1 T74      -0.151500
     32 C12          8.5060    -0.2110    -4.9570 ca         1 T74      -0.120500
     33 N17         10.2610    -2.0070    -7.6420 nh         1 T74      -0.598000
     34 C22         11.3770    -1.0520    -7.6190 c3         1 T74       0.165800
     35 C21         12.4510    -1.5020    -8.6120 c3         1 T74       0.155300
     36 N20         11.8650    -1.5910    -9.9560 n7         1 T74      -0.822200
     37 C19         10.7490    -2.5460    -9.9790 c3         1 T74       0.155300
     38 C18          9.6750    -2.0960    -8.9870 c3         1 T74       0.165800
     39 H38         -0.3610     0.3650     0.9540 h1         1 T74       0.031033
     40 H38A        -0.3610     0.6430    -0.7930 h1         1 T74       0.031033
     41 H38B        -0.3610    -1.0090    -0.1600 h1         1 T74       0.031033
     42 H26          2.3050     1.5130     2.8040 hc         1 T74       0.044033
     43 H26A         0.6150     1.0500     2.5600 hc         1 T74       0.044033
     44 H26B         1.4330     2.0700     1.3690 hc         1 T74       0.044033
     45 H27          0.5100    -1.1530     2.3270 hc         1 T74       0.044033
     46 H27A         2.1470    -1.3570     2.9670 hc         1 T74       0.044033
     47 H27B         1.6940    -2.1220     1.4380 hc         1 T74       0.044033
     48 H24          3.9730    -0.0890     2.1720 hc         1 T74       0.066700
     49 H24A         3.8480    -0.8370     0.5740 hc         1 T74       0.066700
     50 H23          3.6810     2.1440     1.1490 h1         1 T74       0.075700
     51 H23A         3.5560     1.3960    -0.4490 h1         1 T74       0.075700
     52 HN28         9.6220     1.9520     1.2360 hn         1 T74       0.457800
     53 H36          8.8800    -0.2710     3.3220 hc         1 T74       0.046033
     54 H36A        10.4970     0.4300     3.1720 hc         1 T74       0.046033
     55 H36B         9.9060    -0.1010     4.7520 hc         1 T74       0.046033
     56 H33          9.2830     1.5990     6.1770 ha         1 T74       0.132000
     57 H32          8.3450     3.8430     6.5830 ha         1 T74       0.129000
     58 H31          7.5930     5.2290     4.6900 ha         1 T74       0.132000
     59 H35          6.6110     4.3950     1.8380 hc         1 T74       0.046033
     60 H35A         7.7470     5.6630     2.3190 hc         1 T74       0.046033
     61 H35B         8.2570     4.4000     1.1900 hc         1 T74       0.046033
     62 H4           9.5390     0.7550    -1.0830 h4         1 T74       0.023100
     63 HN10         5.4270    -0.8020    -4.0670 hn         1 T74       0.467800
     64 H16          6.3020    -2.7230    -5.5130 ha         1 T74       0.145500
     65 H15          8.0120    -3.3200    -7.1840 ha         1 T74       0.137500
     66 H13         10.3540     0.0620    -5.9970 ha         1 T74       0.137500
     67 H12          8.6440     0.6610    -4.3290 ha         1 T74       0.145500
     68 H22         11.8000    -1.0170    -6.6230 h1         1 T74       0.048950
     69 H22A        11.0160    -0.0700    -7.9000 h1         1 T74       0.048950
     70 H21         12.8280    -2.4740    -8.3190 h1         1 T74       0.039950
     71 H21A        13.2600    -0.7820    -8.6190 h1         1 T74       0.039950
     72 HN20        12.5670    -1.8820   -10.6080 hn         1 T74       0.354800
     73 H19         11.1100    -3.5280    -9.6990 h1         1 T74       0.039950
     74 H19A        10.3260    -2.5820   -10.9760 h1         1 T74       0.039950
     75 H18          9.2970    -1.1240    -9.2800 h1         1 T74       0.048950
     76 H18A         8.8660    -2.8170    -8.9800 h1         1 T74       0.048950
@<TRIPOS>BOND
     1     1     2 1
     2     2     3 1
     3     3     4 1
     4     3     5 1
     5     3     6 1
     6     6     7 1
     7     7     8 1
     8     8     9 1
     9     8    21 1
    10     9    10 ar
    11     9    24 ar
    12    10    11 1
    13    10    22 ar
    14    11    12 1
    15    11    21 2
    16    12    13 1
    17    13    14 ar
    18    13    19 ar
    19    14    15 1
    20    14    16 ar
    21    16    17 ar
    22    17    18 ar
    23    18    19 ar
    24    19    20 1
    25    22    23 ar
    26    23    25 ar
    27    24    25 ar
    28    25    26 1
    29    26    27 1
    30    27    28 ar
    31    27    32 ar
    32    28    29 ar
    33    29    30 ar
    34    30    31 ar
    35    30    33 1
    36    31    32 ar
    37    33    34 1
    38    33    38 1
    39    34    35 1
    40    35    36 1
    41    36    37 1
    42    37    38 1
    43     1    39 1
    44     1    40 1
    45     1    41 1
    46     4    42 1
    47     4    43 1
    48     4    44 1
    49     5    45 1
    50     5    46 1
    51     5    47 1
    52     6    48 1
    53     6    49 1
    54     7    50 1
    55     7    51 1
    56    12    52 1
    57    15    53 1
    58    15    54 1
    59    15    55 1
    60    16    56 1
    61    17    57 1
    62    18    58 1
    63    20    59 1
    64    20    60 1
    65    20    61 1
    66    22    62 1
    67    26    63 1
    68    28    64 1
    69    29    65 1
    70    31    66 1
    71    32    67 1
    72    34    68 1
    73    34    69 1
    74    35    70 1
    75    35    71 1
    76    36    72 1
    77    37    73 1
    78    37    74 1
    79    38    75 1
    80    38    76 1
@<TRIPOS>SUBSTRUCTURE
     1 T74         1 TEMP              0 ****  ****    0 ROOT
