@<TRIPOS>MOLECULE
molecule
   50    53     1     0     0
SMALL
bcc


@<TRIPOS>ATOM
      1 O24          0.0000     0.0000     0.0000 o          1 T75      -0.529100
      2 C22          1.2150     0.0000     0.0000 c          1 T75       0.662700
      3 C23          1.9540     0.0000     1.2800 ca         1 T75      -0.148600
      4 C29          1.2590    -0.0010     2.4900 ca         1 T75      -0.086500
      5 C28          1.9550    -0.0020     3.6820 ca         1 T75      -0.136500
      6 C27          3.3380    -0.0020     3.6790 ca         1 T75      -0.104000
      7 C26          4.0330     0.0010     2.4830 ca         1 T75      -0.136500
      8 C25          3.3500    -0.0050     1.2830 ca         1 T75      -0.086500
      9 N19          1.8890    -0.0040    -1.1670 ns         1 T75      -0.553400
     10 C8           1.1960    -0.1100    -2.3720 ca         1 T75       0.559200
     11 C7           1.9020    -0.2250    -3.5610 ca         1 T75      -0.294300
     12 N9          -0.1280    -0.1070    -2.3680 nb         1 T75      -0.683000
     13 C10         -0.8320    -0.2050    -3.4800 ca         1 T75       0.454200
     14 C11         -0.2100    -0.3160    -4.7050 ca         1 T75      -0.267300
     15 C6           1.1910    -0.3310    -4.7610 ca         1 T75       0.057000
     16 C5           1.8980    -0.4540    -6.0510 cc         1 T75      -0.108400
     17 S4           3.2520     0.5330    -6.5940 ss         1 T75      -0.184300
     18 C3           3.3170    -0.3360    -8.0640 cc         1 T75       0.452700
     19 C20          4.3030    -0.0690    -9.1710 c3         1 T75      -0.105700
     20 C21          3.7160     0.9590   -10.1400 c3         1 T75      -0.090100
     21 N2           2.4090    -1.2490    -8.0970 nd         1 T75      -0.674000
     22 C1           1.6200    -1.3630    -7.0420 cd         1 T75       0.449800
     23 C12          0.5390    -2.3710    -6.9420 ca         1 T75      -0.123500
     24 C17          0.3570    -3.0850    -5.7580 ca         1 T75      -0.111000
     25 C16         -0.6520    -4.0220    -5.6690 ca         1 T75      -0.129000
     26 C15         -1.4810    -4.2540    -6.7530 ca         1 T75      -0.120000
     27 C14         -1.3060    -3.5480    -7.9280 ca         1 T75      -0.089300
     28 C18         -2.2140    -3.8060    -9.1030 c3         1 T75      -0.046800
     29 C13         -0.3040    -2.6040    -8.0270 ca         1 T75      -0.096000
     30 H19          2.8850     0.0910    -1.1700 hn         1 T75       0.330500
     31 H29          0.1760    -0.0010     2.4940 ha         1 T75       0.140000
     32 H25          3.8950    -0.0030     0.3480 ha         1 T75       0.140000
     33 H28          1.4170    -0.0030     4.6220 ha         1 T75       0.135000
     34 H27          3.8800     0.0000     4.6170 ha         1 T75       0.133000
     35 H26          5.1170    -0.0010     2.4870 ha         1 T75       0.135000
     36 H7           2.9850    -0.2320    -3.5600 ha         1 T75       0.139000
     37 H10         -1.9140    -0.1950    -3.4300 h4         1 T75       0.032100
     38 H11         -0.7960    -0.3960    -5.6130 ha         1 T75       0.152000
     39 H201         5.2240     0.3170    -8.7490 hc         1 T75       0.064200
     40 H202         4.5080    -0.9900    -9.7020 hc         1 T75       0.064200
     41 H211         4.4620     1.2250   -10.8800 hc         1 T75       0.042700
     42 H212         3.4200     1.8450    -9.5920 hc         1 T75       0.042700
     43 H213         2.8510     0.5350   -10.6360 hc         1 T75       0.042700
     44 H17          1.0060    -2.9050    -4.9090 ha         1 T75       0.139000
     45 H13         -0.1670    -2.0520    -8.9490 ha         1 T75       0.144000
     46 H16         -0.7950    -4.5790    -4.7510 ha         1 T75       0.134000
     47 H15         -2.2720    -4.9900    -6.6790 ha         1 T75       0.130000
     48 H181        -3.0810    -4.3650    -8.7740 hc         1 T75       0.043367
     49 H182        -1.6800    -4.3760    -9.8540 hc         1 T75       0.043367
     50 H183        -2.5330    -2.8610    -9.5270 hc         1 T75       0.043367
@<TRIPOS>BOND
     1     1     2 2
     2     2     3 1
     3     2     9 1
     4     3     4 ar
     5     3     8 ar
     6     4     5 ar
     7     5     6 ar
     8     6     7 ar
     9     7     8 ar
    10     9    10 1
    11    10    11 ar
    12    10    12 ar
    13    11    15 ar
    14    12    13 ar
    15    13    14 ar
    16    14    15 ar
    17    15    16 1
    18    16    17 1
    19    16    22 2
    20    17    18 1
    21    18    19 1
    22    18    21 2
    23    19    20 1
    24    21    22 1
    25    22    23 1
    26    23    24 ar
    27    23    29 ar
    28    24    25 ar
    29    25    26 ar
    30    26    27 ar
    31    27    28 1
    32    27    29 ar
    33     9    30 1
    34     4    31 1
    35     8    32 1
    36     5    33 1
    37     6    34 1
    38     7    35 1
    39    11    36 1
    40    13    37 1
    41    14    38 1
    42    19    39 1
    43    19    40 1
    44    20    41 1
    45    20    42 1
    46    20    43 1
    47    24    44 1
    48    29    45 1
    49    25    46 1
    50    26    47 1
    51    28    48 1
    52    28    49 1
    53    28    50 1
@<TRIPOS>SUBSTRUCTURE
     1 T75         1 TEMP              0 ****  ****    0 ROOT
