@<TRIPOS>MOLECULE
T75
   50    53     1     0     0
SMALL
bcc


@<TRIPOS>ATOM
      1 O24          0.0000     0.0000     0.0000 o          1 T75      -0.571100
      2 C22          1.2150     0.0000     0.0000 c          1 T75       0.570700
      3 C23          1.9540     0.0000     1.2800 ca         1 T75      -0.161600
      4 C29          1.2590    -0.0010     2.4900 ca         1 T75      -0.059500
      5 C28          1.9550    -0.0020     3.6820 ca         1 T75      -0.110500
      6 C27          3.3380    -0.0020     3.6790 ca         1 T75      -0.077000
      7 C26          4.0330     0.0010     2.4830 ca         1 T75      -0.110500
      8 C25          3.3500    -0.0050     1.2830 ca         1 T75      -0.059500
      9 N19          1.8890    -0.0040    -1.1670 ns         1 T75      -0.122400
     10 C8           1.1960    -0.1100    -2.3720 ca         1 T75       0.367200
     11 C7           1.9020    -0.2250    -3.5610 ca         1 T75      -0.268300
     12 N9          -0.1280    -0.1070    -2.3680 nb         1 T75      -0.556000
     13 C10         -0.8320    -0.2050    -3.4800 ca         1 T75       0.434200
     14 C11         -0.2100    -0.3160    -4.7050 ca         1 T75      -0.242300
     15 C6           1.1910    -0.3310    -4.7610 ca         1 T75       0.064000
     16 C5           1.8980    -0.4540    -6.0510 cc         1 T75      -0.057400
     17 S4           3.2520     0.5330    -6.5940 ss         1 T75      -0.290300
     18 C3           3.3170    -0.3360    -8.0640 cc         1 T75       0.435700
     19 C20          4.3030    -0.0690    -9.1710 c3         1 T75      -0.035700
     20 C21          3.7160     0.9590   -10.1400 c3         1 T75       0.005900
     21 N2           2.4090    -1.2490    -8.0970 nd         1 T75      -0.545000
     22 C1           1.6200    -1.3630    -7.0420 cd         1 T75       0.408800
     23 C12          0.5390    -2.3710    -6.9420 ca         1 T75      -0.129500
     24 C17          0.3570    -3.0850    -5.7580 ca         1 T75      -0.096000
     25 C16         -0.6520    -4.0220    -5.6690 ca         1 T75      -0.099000
     26 C15         -1.4810    -4.2540    -6.7530 ca         1 T75      -0.095000
     27 C14         -1.3060    -3.5480    -7.9280 ca         1 T75      -0.094300
     28 C18         -2.2140    -3.8060    -9.1030 c3         1 T75       0.065200
     29 C13         -0.3040    -2.6040    -8.0270 ca         1 T75      -0.074000
     30 H19          2.8850     0.0910    -1.1700 hn         1 T75       0.176500
     31 H29          0.1760    -0.0010     2.4940 ha         1 T75       0.113000
     32 H25          3.8950    -0.0030     0.3480 ha         1 T75       0.113000
     33 H28          1.4170    -0.0030     4.6220 ha         1 T75       0.106500
     34 H27          3.8800     0.0000     4.6170 ha         1 T75       0.103000
     35 H26          5.1170    -0.0010     2.4870 ha         1 T75       0.106500
     36 H7           2.9850    -0.2320    -3.5600 ha         1 T75       0.123000
     37 H10         -1.9140    -0.1950    -3.4300 h4         1 T75      -0.015900
     38 H11         -0.7960    -0.3960    -5.6130 ha         1 T75       0.129000
     39 H201         5.2240     0.3170    -8.7490 hc         1 T75       0.028200
     40 H202         4.5080    -0.9900    -9.7020 hc         1 T75       0.028200
     41 H211         4.4620     1.2250   -10.8800 hc         1 T75       0.008367
     42 H212         3.4200     1.8450    -9.5920 hc         1 T75       0.008367
     43 H213         2.8510     0.5350   -10.6360 hc         1 T75       0.008367
     44 H17          1.0060    -2.9050    -4.9090 ha         1 T75       0.114000
     45 H13         -0.1670    -2.0520    -8.9490 ha         1 T75       0.117000
     46 H16         -0.7950    -4.5790    -4.7510 ha         1 T75       0.106000
     47 H15         -2.2720    -4.9900    -6.6790 ha         1 T75       0.106000
     48 H181        -3.0810    -4.3650    -8.7740 hc         1 T75       0.007700
     49 H182        -1.6800    -4.3760    -9.8540 hc         1 T75       0.007700
     50 H183        -2.5330    -2.8610    -9.5270 hc         1 T75       0.007700
@<TRIPOS>BOND
     1     1     2 2   
     2     2     3 1   
     3     2     9 1   
     4     3     4 ar  
     5     3     8 ar  
     6     4     5 ar  
     7     4    31 1   
     8     5     6 ar  
     9     5    33 1   
    10     6     7 ar  
    11     6    34 1   
    12     7     8 ar  
    13     7    35 1   
    14     8    32 1   
    15     9    10 1   
    16     9    30 1   
    17    10    11 ar  
    18    10    12 ar  
    19    11    15 ar  
    20    11    36 1   
    21    12    13 ar  
    22    13    14 ar  
    23    13    37 1   
    24    14    15 ar  
    25    14    38 1   
    26    15    16 1   
    27    16    17 1   
    28    16    22 2   
    29    17    18 1   
    30    18    19 1   
    31    18    21 2   
    32    19    20 1   
    33    19    39 1   
    34    19    40 1   
    35    20    41 1   
    36    20    42 1   
    37    20    43 1   
    38    21    22 1   
    39    22    23 1   
    40    23    24 ar  
    41    23    29 ar  
    42    24    25 ar  
    43    24    44 1   
    44    25    26 ar  
    45    25    46 1   
    46    26    27 ar  
    47    26    47 1   
    48    27    28 1   
    49    27    29 ar  
    50    28    48 1   
    51    28    49 1   
    52    28    50 1   
    53    29    45 1   
@<TRIPOS>SUBSTRUCTURE
     1 T75         1 TEMP              0 ****  ****    0 ROOT
