@<TRIPOS>MOLECULE
T76
   71    74     1     0     0
SMALL
bcc


@<TRIPOS>ATOM
      1 C1          0.1630    0.7180    0.2000 ca        1 T76     -0.160300
      2 C2          1.5610    0.6650    0.0440 ca        1 T76      0.069100
      3 C3          2.4210    0.9300    1.1110 ca        1 T76     -0.149000
      4 C4          1.8860    1.2610    2.3560 ca        1 T76     -0.050000
      5 C5          0.4950    1.3260    2.5290 ca        1 T76      0.030400
      6 C6         -0.3610    1.0560    1.4510 ca        1 T76     -0.077000
      7 C7         -0.7470    0.3550   -0.9210 c3        1 T76      0.175100
      8 N8         -1.0260    1.5320   -1.8130 n4        1 T76     -0.677800
      9 C9         -1.7000    1.1550   -3.1090 c         1 T76      0.515100
     10 C10        -2.1730    2.3360   -3.9780 c3        1 T76      0.050700
     11 O11        -1.7990   -0.0290   -3.3750 o         1 T76     -0.371100
     12 O12         2.0420    0.3960   -1.2450 os        1 T76     -0.397900
     13 C18        -3.5740    2.0120   -4.5560 c3        1 T76     -0.086400
     14 C19        -3.3970    1.8690   -6.0630 c3        1 T76     -0.093400
     15 C20        -1.9410    2.2370   -6.3810 c3        1 T76      0.074000
     16 N21        -1.2780    2.5420   -5.1110 n         1 T76     -0.428800
     17 C29        -0.0220    3.0480   -4.9510 c         1 T76      0.679100
     18 C30         0.7830    3.4900   -6.1930 c3        1 T76      0.073500
     19 N31         2.2590    3.5730   -5.8740 n4        1 T76     -0.662800
     20 C32         2.8660    2.3330   -5.2930 c         1 T76      0.540100
     21 O33         2.1520    1.3490   -5.1480 o         1 T76     -0.421100
     22 C34         4.3250    2.4090   -4.9210 c3        1 T76     -0.192400
     23 C35         4.7490    1.1910   -4.1050 c3        1 T76      0.106800
     24 N38         4.1990    1.1760   -2.7210 n4        1 T76     -0.689800
     25 C41         4.2360   -0.2150   -2.0800 c         1 T76      0.522100
     26 O42         5.2530   -0.8550   -2.2500 o         1 T76     -0.341100
     27 C43         2.9930   -0.6580   -1.3300 c3        1 T76      0.070400
     28 O44         0.5020    3.1250   -3.8080 o         1 T76     -0.707100
     29 C45         0.2780    4.8540   -6.7140 c3        1 T76     -0.100700
     30 C47         0.5370    6.0100   -5.7580 c3        1 T76     -0.088400
     31 C48        -0.1260    7.2680   -6.2950 c3        1 T76     -0.080400
     32 C49         0.3760    7.5980   -7.6860 c3        1 T76     -0.092400
     33 C50         0.2090    6.4310   -8.6370 c3        1 T76     -0.080400
     34 C51         0.8520    5.1670   -8.0910 c3        1 T76     -0.088400
     35 CL68       -0.1500    1.7180    4.0300 cl        1 T76      0.037600
     36 H3          3.5130    0.8680    0.9910 ha        1 T76      0.152000
     37 H4          2.5620    1.4640    3.2090 ha        1 T76      0.200000
     38 H6         -1.4540    1.0850    1.6040 ha        1 T76      0.178000
     39 H71        -1.7380   -0.0260   -0.5330 hx        1 T76      0.126700
     40 H72        -0.2810   -0.4540   -1.5580 hx        1 T76      0.126700
     41 H8         -1.6180    2.2030   -1.3090 hn        1 T76      0.470300
     42 H10        -2.2060    3.2780   -3.3550 h1        1 T76      0.105700
     43 H181       -3.9910    1.0730   -4.1120 hc        1 T76      0.105200
     44 H182       -4.2730    2.8530   -4.3110 hc        1 T76      0.105200
     45 H191       -3.6100    0.8190   -6.3940 hc        1 T76      0.106200
     46 H192       -4.1000    2.5450   -6.6130 hc        1 T76      0.106200
     47 H201       -1.9020    3.1290   -7.0650 h1        1 T76      0.079700
     48 H202       -1.4070    1.3770   -6.8730 h1        1 T76      0.079700
     49 H30         0.6690    2.7080   -7.0070 hx        1 T76      0.140700
     50 H31         2.7470    3.8310   -6.7470 hn        1 T76      0.490300
     51 H341        4.9440    2.4000   -5.8720 hc        1 T76      0.146700
     52 H342        4.5620    3.3700   -4.3860 hc        1 T76      0.146700
     53 H351        4.4130    0.2430   -4.6270 hx        1 T76      0.152700
     54 H352        5.8810    1.1630   -4.0390 hx        1 T76      0.152700
     55 H38         4.7450    1.8140   -2.1260 hn        1 T76      0.465300
     56 H431        2.5200   -1.4900   -1.9330 h1        1 T76      0.149700
     57 H432        3.3120   -1.0510   -0.3210 h1        1 T76      0.149700
     58 H45        -0.8420    4.7510   -6.8270 hc        1 T76      0.111700
     59 H471        1.6370    6.2140   -5.6610 hc        1 T76      0.041450
     60 H472        0.1350    5.7650   -4.7410 hc        1 T76      0.041450
     61 H481        0.0950    8.1230   -5.6020 hc        1 T76      0.075700
     62 H482       -1.2380    7.1300   -6.3130 hc        1 T76      0.075700
     63 H491        1.4560    7.8960   -7.6370 hc        1 T76      0.075700
     64 H492       -0.1920    8.4820   -8.0830 hc        1 T76      0.075700
     65 H501       -0.8810    6.2450   -8.8240 hc        1 T76      0.075700
     66 H502        0.6790    6.6810   -9.6250 hc        1 T76      0.075700
     67 H511        0.6590    4.3160   -8.7950 hc        1 T76      0.041450
     68 H512        1.9610    5.3260   -8.0300 hc        1 T76      0.041450
     69 H82        -0.1410    2.0080   -2.0490 hn        1 T76      0.470300
     70 H312        2.3820    4.3410   -5.1910 hn        1 T76      0.490300
     71 H382        3.2220    1.4950   -2.7260 hn        1 T76      0.465300
@<TRIPOS>BOND
     1    1    2 ar  
     2    1    6 ar  
     3    1    7 1   
     4    2    3 ar  
     5    2   12 1   
     6    3    4 ar  
     7    3   36 1   
     8    4    5 ar  
     9    4   37 1   
    10    5    6 ar  
    11    5   35 1   
    12    6   38 1   
    13    7    8 1   
    14    7   39 1   
    15    7   40 1   
    16    8    9 1   
    17    8   41 1   
    18    8   69 1   
    19    9   10 1   
    20    9   11 2   
    21   10   13 1   
    22   10   16 1   
    23   10   42 1   
    24   12   27 1   
    25   13   14 1   
    26   13   43 1   
    27   13   44 1   
    28   14   15 1   
    29   14   45 1   
    30   14   46 1   
    31   15   16 1   
    32   15   47 1   
    33   15   48 1   
    34   16   17 1   
    35   17   18 1   
    36   17   28 2   
    37   18   19 1   
    38   18   29 1   
    39   18   49 1   
    40   19   20 1   
    41   19   50 1   
    42   19   70 1   
    43   20   21 2   
    44   20   22 1   
    45   22   23 1   
    46   22   51 1   
    47   22   52 1   
    48   23   24 1   
    49   23   53 1   
    50   23   54 1   
    51   24   25 1   
    52   24   55 1   
    53   24   71 1   
    54   25   26 2   
    55   25   27 1   
    56   27   56 1   
    57   27   57 1   
    58   29   30 1   
    59   29   34 1   
    60   29   58 1   
    61   30   31 1   
    62   30   59 1   
    63   30   60 1   
    64   31   32 1   
    65   31   61 1   
    66   31   62 1   
    67   32   33 1   
    68   32   63 1   
    69   32   64 1   
    70   33   34 1   
    71   33   65 1   
    72   33   66 1   
    73   34   67 1   
    74   34   68 1   
@<TRIPOS>SUBSTRUCTURE
     1 T76         1 TEMP              0 ****  ****    0 ROOT
