@<TRIPOS>MOLECULE
molecule
   63    67     1     0     0
SMALL
bcc


@<TRIPOS>ATOM
      1 C34          0.0000     0.0000     0.0000 c3         1 T77       0.149100
      2 N32          1.4690     0.0000     0.0000 n3         1 T77      -0.721600
      3 C33          1.9950     0.0000     1.3720 c3         1 T77       0.149100
      4 C31          1.9970    -1.1370    -0.7650 c3         1 T77       0.162800
      5 C30          1.6330    -0.9690    -2.2420 c3         1 T77       0.140400
      6 O27          2.2970     0.1810    -2.7690 os         1 T77      -0.307900
      7 C24          2.0800     0.4730    -4.0770 ca         1 T77       0.154100
      8 C21          1.2390    -0.3290    -4.8370 ca         1 T77      -0.194500
      9 C15          1.0170    -0.0370    -6.1640 ca         1 T77      -0.069500
     10 C20          2.6960     1.5790    -4.6520 ca         1 T77      -0.194500
     11 C14          2.4780     1.8800    -5.9790 ca         1 T77      -0.069500
     12 C7           1.6370     1.0710    -6.7470 ca         1 T77      -0.085800
     13 C3           1.4030     1.3880    -8.1690 cc         1 T77       0.005700
     14 N8           0.1720     1.4280    -8.7860 na         1 T77      -0.261100
     15 C5           0.3140     1.7550   -10.1070 ca         1 T77       0.520800
     16 N11         -0.5450     1.9200   -11.1130 nb         1 T77      -0.810000
     17 C18         -0.1210     2.2450   -12.3150 ca         1 T77       0.741900
     18 N13          1.1560     2.4230   -12.5970 nb         1 T77      -0.848000
     19 C2           1.6860     1.9350   -10.3630 ca         1 T77      -0.388400
     20 C1           2.3800     1.6990    -9.0930 cd         1 T77      -0.063400
     21 C4           3.8380     1.7760    -8.8500 ca         1 T77      -0.025800
     22 C9           4.5610     0.6190    -8.5610 ca         1 T77      -0.112500
     23 C16          5.9210     0.6970    -8.3360 ca         1 T77      -0.128500
     24 C22          6.5650     1.9190    -8.3960 ca         1 T77      -0.141000
     25 C17          5.8530     3.0700    -8.6820 ca         1 T77      -0.128500
     26 C10          4.4950     3.0040    -8.9160 ca         1 T77      -0.112500
     27 C6           2.0910     2.2810   -11.6600 ca         1 T77       0.775200
     28 N12          3.4280     2.4680   -11.9590 nu         1 T77      -0.895900
     29 C19          3.8310     2.8290   -13.3210 c3         1 T77       0.270800
     30 C23          5.3530     2.9760   -13.3810 c3         1 T77       0.123500
     31 S25          6.1760     1.4090   -12.9170 ss         1 T77      -0.337200
     32 C28          7.6200     1.9990   -11.9880 c3         1 T77       0.014200
     33 C29          7.6720     3.5310   -11.9790 c3         1 T77       0.014200
     34 S26          5.9480     4.1340   -12.0850 ss         1 T77      -0.337200
     35 H1          -0.3610     0.5620    -0.8530 h1         1 T77       0.033200
     36 H2          -0.3610    -1.0200    -0.0600 h1         1 T77       0.033200
     37 H3          -0.3610     0.4580     0.9130 h1         1 T77       0.033200
     38 H5           1.6590     0.8920     1.8880 h1         1 T77       0.033200
     39 H6           1.6360    -0.8770     1.8970 h1         1 T77       0.033200
     40 H7           3.0780    -0.0140     1.3440 h1         1 T77       0.033200
     41 H8           3.0740    -1.1730    -0.6600 h1         1 T77       0.047200
     42 H9           1.5650    -2.0570    -0.3890 h1         1 T77       0.047200
     43 H10          1.9440    -1.8490    -2.7930 h1         1 T77       0.036700
     44 H11          0.5610    -0.8430    -2.3380 h1         1 T77       0.036700
     45 H12          0.7580    -1.1880    -4.3840 ha         1 T77       0.142500
     46 H13          0.3620    -0.6650    -6.7560 ha         1 T77       0.140500
     47 H14          3.3480     2.2060    -4.0550 ha         1 T77       0.142500
     48 H15          2.9600     2.7410    -6.4260 ha         1 T77       0.140500
     49 H16         -0.7010     1.2440    -8.3320 hn         1 T77       0.308700
     50 H17         -0.8500     2.3700   -13.1070 h5         1 T77       0.056100
     51 H18          4.0570    -0.3390    -8.5140 ha         1 T77       0.141500
     52 H19          6.4840    -0.2010    -8.1110 ha         1 T77       0.129500
     53 H20          7.6320     1.9760    -8.2160 ha         1 T77       0.123000
     54 H21          6.3640     4.0240    -8.7300 ha         1 T77       0.129500
     55 H22          3.9380     3.9060    -9.1400 ha         1 T77       0.141500
     56 H23          4.1230     2.3250   -11.2530 hn         1 T77       0.478800
     57 H24          3.5160     2.0530   -14.0080 h1         1 T77       0.071200
     58 H25          3.3670     3.7680   -13.5980 h1         1 T77       0.071200
     59 H26          5.6770     3.3020   -14.3620 h2         1 T77       0.101700
     60 H27          7.5570     1.6400   -10.9680 h1         1 T77       0.082200
     61 H28          8.5210     1.6160   -12.4510 h1         1 T77       0.082200
     62 H29          8.1270     3.8780   -11.0590 h1         1 T77       0.082200
     63 H30          8.2370     3.8840   -12.8330 h1         1 T77       0.082200
@<TRIPOS>BOND
     1     4     5 1
     2     4     2 1
     3     5     6 1
     4     2     3 1
     5     2     1 1
     6     6     7 1
     7     8     7 ar
     8     8     9 ar
     9     7    10 ar
    10     9    12 ar
    11    10    11 ar
    12    12    11 ar
    13    12    13 1
    14    14    13 1
    15    14    15 1
    16    13    20 2
    17    16    15 ar
    18    16    17 ar
    19    15    19 ar
    20    20    19 1
    21    20    21 1
    22    17    18 ar
    23    19    27 ar
    24    21    22 ar
    25    21    26 ar
    26    18    27 ar
    27    22    23 ar
    28    27    28 1
    29    26    25 ar
    30    23    24 ar
    31    25    24 ar
    32    28    29 1
    33    29    30 1
    34    30    31 1
    35    30    34 1
    36    31    32 1
    37    32    33 1
    38    34    33 1
    39     1    35 1
    40     1    36 1
    41     1    37 1
    42     3    38 1
    43     3    39 1
    44     3    40 1
    45     4    41 1
    46     4    42 1
    47     5    43 1
    48     5    44 1
    49     8    45 1
    50     9    46 1
    51    10    47 1
    52    11    48 1
    53    14    49 1
    54    17    50 1
    55    22    51 1
    56    23    52 1
    57    24    53 1
    58    25    54 1
    59    26    55 1
    60    28    56 1
    61    29    57 1
    62    29    58 1
    63    30    59 1
    64    32    60 1
    65    32    61 1
    66    33    62 1
    67    33    63 1
@<TRIPOS>SUBSTRUCTURE
     1 T77         1 TEMP              0 ****  ****    0 ROOT
