@<TRIPOS>MOLECULE
T77
   63    67     1     0     0
SMALL
bcc


@<TRIPOS>ATOM
      1 C34          0.0000     0.0000     0.0000 c3         1 T77       0.180600
      2 N32          1.4690     0.0000     0.0000 n3         1 T77      -0.536600
      3 C33          1.9950     0.0000     1.3720 c3         1 T77       0.180600
      4 C31          1.9970    -1.1370    -0.7650 c3         1 T77       0.147800
      5 C30          1.6330    -0.9690    -2.2420 c3         1 T77       0.196400
      6 O27          2.2970     0.1810    -2.7690 os         1 T77      -0.285900
      7 C24          2.0800     0.4730    -4.0770 ca         1 T77       0.158100
      8 C21          1.2390    -0.3290    -4.8370 ca         1 T77      -0.178000
      9 C15          1.0170    -0.0370    -6.1640 ca         1 T77      -0.047500
     10 C20          2.6960     1.5790    -4.6520 ca         1 T77      -0.178000
     11 C14          2.4780     1.8800    -5.9790 ca         1 T77      -0.047500
     12 C7           1.6370     1.0710    -6.7470 ca         1 T77      -0.071800
     13 C3           1.4030     1.3880    -8.1690 cc         1 T77      -0.189300
     14 N8           0.1720     1.4280    -8.7860 na         1 T77       0.292900
     15 C5           0.3140     1.7550   -10.1070 ca         1 T77       0.288800
     16 N11         -0.5450     1.9200   -11.1130 nb         1 T77      -0.698000
     17 C18         -0.1210     2.2450   -12.3150 ca         1 T77       0.693900
     18 N13          1.1560     2.4230   -12.5970 nb         1 T77      -0.761000
     19 C2           1.6860     1.9350   -10.3630 ca         1 T77      -0.391400
     20 C1           2.3800     1.6990    -9.0930 cd         1 T77      -0.043400
     21 C4           3.8380     1.7760    -8.8500 ca         1 T77      -0.010800
     22 C9           4.5610     0.6190    -8.5610 ca         1 T77      -0.091500
     23 C16          5.9210     0.6970    -8.3360 ca         1 T77      -0.100000
     24 C22          6.5650     1.9190    -8.3960 ca         1 T77      -0.120000
     25 C17          5.8530     3.0700    -8.6820 ca         1 T77      -0.100000
     26 C10          4.4950     3.0040    -8.9160 ca         1 T77      -0.091500
     27 C6           2.0910     2.2810   -11.6600 ca         1 T77       0.610200
     28 N12          3.4280     2.4680   -11.9590 nu         1 T77      -0.508900
     29 C19          3.8310     2.8290   -13.3210 c3         1 T77       0.209800
     30 C23          5.3530     2.9760   -13.3810 c3         1 T77       0.177500
     31 S25          6.1760     1.4090   -12.9170 ss         1 T77      -0.386200
     32 C28          7.6200     1.9990   -11.9880 c3         1 T77       0.087700
     33 C29          7.6720     3.5310   -11.9790 c3         1 T77       0.087700
     34 S26          5.9480     4.1340   -12.0850 ss         1 T77      -0.386200
     35 H1          -0.3610     0.5620    -0.8530 h1         1 T77       0.001700
     36 H2          -0.3610    -1.0200    -0.0600 h1         1 T77       0.001700
     37 H3          -0.3610     0.4580     0.9130 h1         1 T77       0.001700
     38 H5           1.6590     0.8920     1.8880 h1         1 T77       0.001700
     39 H6           1.6360    -0.8770     1.8970 h1         1 T77       0.001700
     40 H7           3.0780    -0.0140     1.3440 h1         1 T77       0.001700
     41 H8           3.0740    -1.1730    -0.6600 h1         1 T77       0.018200
     42 H9           1.5650    -2.0570    -0.3890 h1         1 T77       0.018200
     43 H10          1.9440    -1.8490    -2.7930 h1         1 T77       0.004200
     44 H11          0.5610    -0.8430    -2.3380 h1         1 T77       0.004200
     45 H12          0.7580    -1.1880    -4.3840 ha         1 T77       0.120000
     46 H13          0.3620    -0.6650    -6.7560 ha         1 T77       0.109500
     47 H14          3.3480     2.2060    -4.0550 ha         1 T77       0.120000
     48 H15          2.9600     2.7410    -6.4260 ha         1 T77       0.109500
     49 H16         -0.7010     1.2440    -8.3320 hn         1 T77       0.119700
     50 H17         -0.8500     2.3700   -13.1070 h5         1 T77      -0.008900
     51 H18          4.0570    -0.3390    -8.5140 ha         1 T77       0.115500
     52 H19          6.4840    -0.2010    -8.1110 ha         1 T77       0.103500
     53 H20          7.6320     1.9760    -8.2160 ha         1 T77       0.099000
     54 H21          6.3640     4.0240    -8.7300 ha         1 T77       0.103500
     55 H22          3.9380     3.9060    -9.1400 ha         1 T77       0.115500
     56 H23          4.1230     2.3250   -11.2530 hn         1 T77       0.342800
     57 H24          3.5160     2.0530   -14.0080 h1         1 T77       0.042200
     58 H25          3.3670     3.7680   -13.5980 h1         1 T77       0.042200
     59 H26          5.6770     3.3020   -14.3620 h2         1 T77       0.083700
     60 H27          7.5570     1.6400   -10.9680 h1         1 T77       0.059700
     61 H28          8.5210     1.6160   -12.4510 h1         1 T77       0.059700
     62 H29          8.1270     3.8780   -11.0590 h1         1 T77       0.059700
     63 H30          8.2370     3.8840   -12.8330 h1         1 T77       0.059700
@<TRIPOS>BOND
     1     1     2 1   
     2     1    35 1   
     3     1    36 1   
     4     1    37 1   
     5     2     3 1   
     6     2     4 1   
     7     3    38 1   
     8     3    39 1   
     9     3    40 1   
    10     4     5 1   
    11     4    41 1   
    12     4    42 1   
    13     5     6 1   
    14     5    43 1   
    15     5    44 1   
    16     6     7 1   
    17     7     8 ar  
    18     7    10 ar  
    19     8     9 ar  
    20     8    45 1   
    21     9    12 ar  
    22     9    46 1   
    23    10    11 ar  
    24    10    47 1   
    25    11    12 ar  
    26    11    48 1   
    27    12    13 1   
    28    13    14 1   
    29    13    20 2   
    30    14    15 1   
    31    14    49 1   
    32    15    16 ar  
    33    15    19 ar  
    34    16    17 ar  
    35    17    18 ar  
    36    17    50 1   
    37    18    27 ar  
    38    19    20 1   
    39    19    27 ar  
    40    20    21 1   
    41    21    22 ar  
    42    21    26 ar  
    43    22    23 ar  
    44    22    51 1   
    45    23    24 ar  
    46    23    52 1   
    47    24    25 ar  
    48    24    53 1   
    49    25    26 ar  
    50    25    54 1   
    51    26    55 1   
    52    27    28 1   
    53    28    29 1   
    54    28    56 1   
    55    29    30 1   
    56    29    57 1   
    57    29    58 1   
    58    30    31 1   
    59    30    34 1   
    60    30    59 1   
    61    31    32 1   
    62    32    33 1   
    63    32    60 1   
    64    32    61 1   
    65    33    34 1   
    66    33    62 1   
    67    33    63 1   
@<TRIPOS>SUBSTRUCTURE
     1 T77         1 TEMP              0 ****  ****    0 ROOT
