@<TRIPOS>MOLECULE
molecule
   33    34     1     0     0
SMALL
bcc


@<TRIPOS>ATOM
      1 C            0.0000     0.0000     0.0000 c3         1 T7O      -0.141100
      2 O            2.1120     0.0000    -1.0450 o          1 T7O      -0.564000
      3 C1           1.5070     0.0000     0.0000 c          1 T7O       0.629100
      4 C10          5.0180    -3.6900     4.4540 ca         1 T7O      -0.137000
      5 C11          5.2820    -4.8850     5.0930 ca         1 T7O      -0.165000
      6 C12          5.8080    -4.8920     6.3680 ca         1 T7O      -0.082000
      7 C13          5.8130    -2.4770     6.3800 ca         1 T7O      -0.086000
      8 C14          6.0780    -3.6870     7.0200 ca         1 T7O      -0.105600
      9 C15          6.6400    -3.6930     8.3870 c          1 T7O       0.882200
     10 C2           3.6270     0.0000     1.0890 c3         1 T7O       0.199700
     11 C3           4.2030    -0.0010     2.4810 ca         1 T7O      -0.108300
     12 C4           4.4660    -1.1970     3.1170 ca         1 T7O      -0.111000
     13 C5           4.9970    -1.1960     4.4040 cp         1 T7O      -0.001000
     14 C6           5.2610     0.0140     5.0440 ca         1 T7O      -0.112000
     15 C7           4.9940     1.2040     4.3990 ca         1 T7O      -0.135000
     16 C8           4.4720     1.1970     3.1170 ca         1 T7O      -0.128000
     17 C9           5.2820    -2.4790     5.0940 cp         1 T7O      -0.090000
     18 O1           2.1770     0.0000     1.1630 os         1 T7O      -0.420900
     19 O2           6.8950    -4.8630     9.0040 o          1 T7O      -0.835800
     20 O3           6.8740    -2.6430     8.9520 o          1 T7O      -0.835800
     21 H2          -0.3610    -0.8860     0.5070 hc         1 T7O       0.066033
     22 H1          -0.3610     0.0040    -1.0210 hc         1 T7O       0.066033
     23 H           -0.3610     0.8830     0.5140 hc         1 T7O       0.066033
     24 H9           4.6040    -3.6920     3.4520 ha         1 T7O       0.106000
     25 H10          5.0740    -5.8220     4.5900 ha         1 T7O       0.107000
     26 H11          6.0130    -5.8330     6.8640 ha         1 T7O       0.156000
     27 H12          6.1100    -1.5430     6.8420 ha         1 T7O       0.148000
     28 H4           3.9620    -0.8840     0.5590 h1         1 T7O       0.050200
     29 H3           3.9610     0.8850     0.5600 h1         1 T7O       0.050200
     30 H5           4.2590    -2.1350     2.6160 ha         1 T7O       0.135000
     31 H6           5.6720     0.0200     6.0460 ha         1 T7O       0.153000
     32 H7           5.2010     2.1450     4.8930 ha         1 T7O       0.124000
     33 H8           4.2630     2.1340     2.6140 ha         1 T7O       0.118000
@<TRIPOS>BOND
     1    10    11 1
     2    10    18 1
     3     2     3 2
     4    16    11 ar
     5    16    15 ar
     6    11    12 ar
     7    18     3 1
     8     3     1 1
     9    15    14 ar
    10    12    13 ar
    11    14    13 ar
    12    13    17 1
    13     4    17 ar
    14     4     5 ar
    15    17     7 ar
    16     5     6 ar
    17     7     8 ar
    18     6     8 ar
    19     8     9 1
    20     9    20 1
    21     9    19 1
    22     1    21 1
    23     1    22 1
    24     1    23 1
    25     4    24 1
    26     5    25 1
    27     6    26 1
    28     7    27 1
    29    10    28 1
    30    10    29 1
    31    12    30 1
    32    14    31 1
    33    15    32 1
    34    16    33 1
@<TRIPOS>SUBSTRUCTURE
     1 T7O         1 TEMP              0 ****  ****    0 ROOT
