@<TRIPOS>MOLECULE
T7Z
   56    59     1     0     0
SMALL
bcc


@<TRIPOS>ATOM
      1 C01          0.0000     0.0000     0.0000 c3         1 T7Z       0.199100
      2 N02          1.4650     0.0000     0.0000 n2         1 T7Z      -0.559900
      3 C03          2.1190     0.0000     1.1340 cc         1 T7Z       0.477100
      4 N04          1.5940    -0.0010     2.4000 na         1 T7Z      -0.244000
      5 C05          2.4720    -0.0010     3.4280 cc         1 T7Z      -0.010200
      6 C06          1.9930    -0.0020     4.8560 c3         1 T7Z       0.028100
      7 C07          3.7830    -0.0010     3.1370 cd         1 T7Z      -0.201200
      8 C08          4.9060    -0.0010     4.0880 ca         1 T7Z       0.635100
      9 N09          4.6820    -0.0020     5.4020 nb         1 T7Z      -0.707000
     10 C10          5.6910    -0.0010     6.2600 ca         1 T7Z       0.722900
     11 N11          5.4180    -0.0020     7.6140 nu         1 T7Z      -0.274300
     12 C12          6.4600    -0.1200     8.5380 ca         1 T7Z      -0.058400
     13 C13          6.3840     0.5340     9.7610 ca         1 T7Z      -0.004000
     14 C14          7.4150     0.4160    10.6710 ca         1 T7Z      -0.146500
     15 S15          7.3190     1.2450    12.2230 sy         1 T7Z       1.060200
     16 N16          7.2520     0.0790    13.3980 n3         1 T7Z      -0.537500
     17 C17          8.4810    -0.4480    14.0110 c3         1 T7Z       0.184300
     18 C18          8.3290    -0.3830    15.5350 c3         1 T7Z       0.205900
     19 O19          7.1050    -1.0210    15.9130 os         1 T7Z      -0.412600
     20 C20          5.9320    -0.3920    15.3910 c3         1 T7Z       0.205900
     21 C21          5.9630    -0.4540    13.8640 c3         1 T7Z       0.184300
     22 O22          8.5570     1.9190    12.3960 o          1 T7Z      -0.587300
     23 O23          6.0620     1.9100    12.2460 o          1 T7Z      -0.587300
     24 C24          8.5240    -0.3520    10.3660 ca         1 T7Z       0.021700
     25 C25          9.6480    -0.4780    11.3620 c3         1 T7Z      -0.041800
     26 C26          8.6040    -1.0030     9.1500 ca         1 T7Z      -0.118000
     27 C27          7.5730    -0.8940     8.2370 ca         1 T7Z      -0.051000
     28 N28          6.9560    -0.0010     5.8590 nb         1 T7Z      -0.704000
     29 C29          7.2700    -0.0010     4.5770 ca         1 T7Z       0.529200
     30 C30          6.2440    -0.0070     3.6260 ca         1 T7Z      -0.276600
     31 C31          6.5390    -0.0120     2.2240 cg         1 T7Z       0.236800
     32 N32          6.7530    -0.0150     1.1090 n1         1 T7Z      -0.349800
     33 S33          3.8770    -0.0070     1.3660 ss         1 T7Z      -0.198800
     34 H011        -0.3610    -0.0000    -1.0210 h1         1 T7Z       0.000033
     35 H012        -0.3610     0.8850     0.5110 h1         1 T7Z       0.000033
     36 H013        -0.3610    -0.8840     0.5110 h1         1 T7Z       0.000033
     37 H04          0.6230     0.0000     2.6440 hn         1 T7Z       0.291800
     38 H061         1.0660     0.5540     4.9270 hc         1 T7Z       0.033033
     39 H062         2.7410     0.4610     5.4880 hc         1 T7Z       0.033033
     40 H063         1.8280    -1.0220     5.1810 hc         1 T7Z       0.033033
     41 H11          4.5040    -0.2500     7.9400 hn         1 T7Z       0.289800
     42 H13          5.5580     1.2050     9.9650 ha         1 T7Z       0.134000
     43 H27          7.6630    -1.3570     7.2620 ha         1 T7Z       0.136000
     44 H171         8.7010    -1.4170    13.5780 h1         1 T7Z       0.033450
     45 H172         9.2980     0.2310    13.8000 h1         1 T7Z       0.033450
     46 H211         5.1730     0.2220    13.5580 h1         1 T7Z       0.033450
     47 H212         5.8000    -1.4230    13.4080 h1         1 T7Z       0.033450
     48 H181         9.1780    -0.8760    15.9930 h1         1 T7Z       0.014700
     49 H182         8.3100     0.6560    15.8410 h1         1 T7Z       0.014700
     50 H201         5.0710    -1.0040    15.6300 h1         1 T7Z       0.014700
     51 H202         5.8200     0.5800    15.8560 h1         1 T7Z       0.014700
     52 H251         9.4720    -1.3380    11.9980 hc         1 T7Z       0.042367
     53 H252         9.6940     0.4170    11.9710 hc         1 T7Z       0.042367
     54 H253        10.5860    -0.6050    10.8350 hc         1 T7Z       0.042367
     55 H26          9.4740    -1.6040     8.9130 ha         1 T7Z       0.114000
     56 H29          8.3090    -0.0010     4.2730 h4         1 T7Z      -0.006900
@<TRIPOS>BOND
     1     1     2 1   
     2     1    34 1   
     3     1    35 1   
     4     1    36 1   
     5     2     3 2   
     6     3     4 1   
     7     3    33 1   
     8     4     5 1   
     9     4    37 1   
    10     5     6 1   
    11     5     7 2   
    12     6    38 1   
    13     6    39 1   
    14     6    40 1   
    15     7     8 1   
    16     7    33 1   
    17     8     9 ar  
    18     8    30 ar  
    19     9    10 ar  
    20    10    11 1   
    21    10    28 ar  
    22    11    12 1   
    23    11    41 1   
    24    12    13 ar  
    25    12    27 ar  
    26    13    14 ar  
    27    13    42 1   
    28    14    15 1   
    29    14    24 ar  
    30    15    16 1   
    31    15    22 2   
    32    15    23 2   
    33    16    17 1   
    34    16    21 1   
    35    17    18 1   
    36    17    44 1   
    37    17    45 1   
    38    18    19 1   
    39    18    48 1   
    40    18    49 1   
    41    19    20 1   
    42    20    21 1   
    43    20    50 1   
    44    20    51 1   
    45    21    46 1   
    46    21    47 1   
    47    24    25 1   
    48    24    26 ar  
    49    25    52 1   
    50    25    53 1   
    51    25    54 1   
    52    26    27 ar  
    53    26    55 1   
    54    27    43 1   
    55    28    29 ar  
    56    29    30 ar  
    57    29    56 1   
    58    30    31 1   
    59    31    32 3   
@<TRIPOS>SUBSTRUCTURE
     1 T7Z         1 TEMP              0 ****  ****    0 ROOT
