@<TRIPOS>MOLECULE
molecule
   56    59     1     0     0
SMALL
bcc


@<TRIPOS>ATOM
      1 C01          0.0000     0.0000     0.0000 c3         1 T7Z       0.111100
      2 N02          1.4650     0.0000     0.0000 n2         1 T7Z      -0.660900
      3 C03          2.1190     0.0000     1.1340 cc         1 T7Z       0.584100
      4 N04          1.5940    -0.0010     2.4000 na         1 T7Z      -0.720000
      5 C05          2.4720    -0.0010     3.4280 cc         1 T7Z       0.197800
      6 C06          1.9930    -0.0020     4.8560 c3         1 T7Z      -0.099900
      7 C07          3.7830    -0.0010     3.1370 cd         1 T7Z      -0.246200
      8 C08          4.9060    -0.0010     4.0880 ca         1 T7Z       0.672100
      9 N09          4.6820    -0.0020     5.4020 nb         1 T7Z      -0.813000
     10 C10          5.6910    -0.0010     6.2600 ca         1 T7Z       1.002900
     11 N11          5.4180    -0.0020     7.6140 nu         1 T7Z      -0.755300
     12 C12          6.4600    -0.1200     8.5380 ca         1 T7Z       0.070600
     13 C13          6.3840     0.5340     9.7610 ca         1 T7Z      -0.066000
     14 C14          7.4150     0.4160    10.6710 ca         1 T7Z      -0.289500
     15 S15          7.3190     1.2450    12.2230 sy         1 T7Z       1.429200
     16 N16          7.2520     0.0790    13.3980 n3         1 T7Z      -0.802500
     17 C17          8.4810    -0.4480    14.0110 c3         1 T7Z       0.194800
     18 C18          8.3290    -0.3830    15.5350 c3         1 T7Z       0.135900
     19 O19          7.1050    -1.0210    15.9130 os         1 T7Z      -0.416600
     20 C20          5.9320    -0.3920    15.3910 c3         1 T7Z       0.135900
     21 C21          5.9630    -0.4540    13.8640 c3         1 T7Z       0.194800
     22 O22          8.5570     1.9190    12.3960 o          1 T7Z      -0.634300
     23 O23          6.0620     1.9100    12.2460 o          1 T7Z      -0.634300
     24 C24          8.5240    -0.3520    10.3660 ca         1 T7Z      -0.006300
     25 C25          9.6480    -0.4780    11.3620 c3         1 T7Z      -0.110800
     26 C26          8.6040    -1.0030     9.1500 ca         1 T7Z      -0.126000
     27 C27          7.5730    -0.8940     8.2370 ca         1 T7Z      -0.093000
     28 N28          6.9560    -0.0010     5.8590 nb         1 T7Z      -0.800000
     29 C29          7.2700    -0.0010     4.5770 ca         1 T7Z       0.548200
     30 C30          6.2440    -0.0070     3.6260 ca         1 T7Z      -0.347600
     31 C31          6.5390    -0.0120     2.2240 cg         1 T7Z       0.243800
     32 N32          6.7880    -0.0280     1.1170 n1         1 T7Z      -0.339800
     33 S33          3.8770    -0.0070     1.3660 ss         1 T7Z      -0.067800
     34 H011        -0.2010    -0.7640     0.7420 h1         1 T7Z       0.052033
     35 H012        -0.3730    -0.1070    -1.0120 h1         1 T7Z       0.052033
     36 H013        -0.0440     1.0180     0.3690 h1         1 T7Z       0.052033
     37 H04          0.6160    -0.1960     2.4870 hn         1 T7Z       0.453800
     38 H061         2.7620     0.4250     5.4890 hc         1 T7Z       0.073367
     39 H062         2.0050    -0.9590     5.3630 hc         1 T7Z       0.073367
     40 H063         1.0600     0.4930     5.0940 hc         1 T7Z       0.073367
     41 H11          4.6510    -0.1080     8.2480 hn         1 T7Z       0.486800
     42 H13          5.6500     1.3290     9.7120 ha         1 T7Z       0.160000
     43 H27          7.7210    -1.0490     7.1750 ha         1 T7Z       0.188000
     44 H171         9.2250     0.1020    13.4470 h1         1 T7Z       0.058450
     45 H172         8.7180    -1.4600    13.7040 h1         1 T7Z       0.058450
     46 H211         5.0270    -0.3320    13.3320 h1         1 T7Z       0.058450
     47 H212         5.7960    -1.4850    13.5780 h1         1 T7Z       0.058450
     48 H181         8.3050     0.6320    15.9130 h1         1 T7Z       0.053200
     49 H182         9.2340    -0.5490    16.1060 h1         1 T7Z       0.053200
     50 H201         5.8650     0.4760    16.0350 h1         1 T7Z       0.053200
     51 H202         5.0030    -0.9370    15.5000 h1         1 T7Z       0.053200
     52 H251         9.3900    -1.1680    12.1560 hc         1 T7Z       0.067700
     53 H252        10.4180    -1.0300    10.8370 hc         1 T7Z       0.067700
     54 H253         9.8090     0.4300    11.9310 hc         1 T7Z       0.067700
     55 H26          9.5180    -1.5830     9.1030 ha         1 T7Z       0.142000
     56 H29          8.1560    -0.3440     4.0560 h4         1 T7Z       0.051100
@<TRIPOS>BOND
     1     1     2 1
     2     2     3 2
     3     3     4 1
     4     3    33 1
     5     4     5 1
     6     5     6 1
     7     5     7 2
     8     7     8 1
     9     7    33 1
    10     8     9 ar
    11     8    30 ar
    12     9    10 ar
    13    10    11 1
    14    10    28 ar
    15    11    12 1
    16    12    13 ar
    17    12    27 ar
    18    13    14 ar
    19    14    15 1
    20    14    24 ar
    21    15    16 1
    22    15    22 2
    23    15    23 2
    24    16    17 1
    25    16    21 1
    26    17    18 1
    27    18    19 1
    28    19    20 1
    29    20    21 1
    30    24    25 1
    31    24    26 ar
    32    26    27 ar
    33    28    29 ar
    34    29    30 ar
    35    30    31 1
    36    31    32 3
    37     1    34 1
    38     1    35 1
    39     1    36 1
    40     4    37 1
    41     6    38 1
    42     6    39 1
    43     6    40 1
    44    11    41 1
    45    13    42 1
    46    27    43 1
    47    17    44 1
    48    17    45 1
    49    21    46 1
    50    21    47 1
    51    18    48 1
    52    18    49 1
    53    20    50 1
    54    20    51 1
    55    25    52 1
    56    25    53 1
    57    25    54 1
    58    26    55 1
    59    29    56 1
@<TRIPOS>SUBSTRUCTURE
     1 T7Z         1 TEMP              0 ****  ****    0 ROOT
