@<TRIPOS>MOLECULE
T80
   94    93     1     0     0
SMALL
bcc


@<TRIPOS>ATOM
      1 C1         -1.6900   -1.6910   -1.4860 c3        1 T80      0.118700
      2 O2         -1.4080   -0.3850   -1.0160 os        1 T80     -0.425600
      3 C3         -0.3850   -0.3750   -0.0220 c3        1 T80      0.125400
      4 C4         -0.1930    1.0880    0.3630 c3        1 T80      0.128400
      5 O5          0.7700    1.0890    1.4140 os        1 T80     -0.430600
      6 C6          1.0470    2.4080    1.8850 c3        1 T80      0.129400
      7 C7          2.1910    2.2770    2.8840 c3        1 T80      0.127400
      8 O8          3.3450    2.8270    2.2520 os        1 T80     -0.428600
      9 C9          4.5310    2.6180    3.0170 c3        1 T80      0.127400
     10 C10         5.6400    3.3960    2.3160 c3        1 T80      0.127400
     11 O11         5.9040    4.5420    3.1230 os        1 T80     -0.429600
     12 C12         6.8090    5.4470    2.4950 c3        1 T80      0.127400
     13 C13         7.1520    6.5080    3.5360 c3        1 T80      0.127400
     14 O14         8.4960    6.2570    3.9420 os        1 T80     -0.426600
     15 C15         8.8900    7.0730    5.0410 c3        1 T80      0.125400
     16 C16        10.3740    6.8120    5.2670 c3        1 T80      0.136400
     17 O17        11.0740    7.8670    4.5880 os        1 T80     -0.445900
     18 C18        12.4340    7.7450    4.4980 c         1 T80      0.634100
     19 O19        12.9690    6.7740    5.0360 o         1 T80     -0.542000
     20 C20        13.0590    8.8570    3.7160 c3        1 T80     -0.127400
     21 C21        14.4300    9.2010    4.2570 c3        1 T80     -0.079400
     22 C22        15.1140   10.2250    3.3760 c3        1 T80     -0.078400
     23 C23        16.4800   10.5840    3.9190 c3        1 T80     -0.079400
     24 C24        17.1690   11.6030    3.0370 c3        1 T80     -0.079400
     25 C25        18.5370   11.9610    3.5770 c3        1 T80     -0.079400
     26 C26        19.2280   12.9770    2.6930 c3        1 T80     -0.079400
     27 C27        20.5970   13.3330    3.2320 c3        1 T80     -0.079400
     28 C28        21.2880   14.3480    2.3470 c3        1 T80     -0.079400
     29 C29        22.6590   14.7020    2.8840 c3        1 T80     -0.079400
     30 C30        23.3500   15.7170    1.9990 c3        1 T80     -0.079400
     31 C31        24.7210   16.0700    2.5340 c3        1 T80     -0.079400
     32 C32        25.4130   17.0840    1.6490 c3        1 T80     -0.079400
     33 C33        26.7840   17.4360    2.1840 c3        1 T80     -0.079400
     34 C34        27.4760   18.4490    1.2970 c3        1 T80     -0.079400
     35 C35        28.8480   18.8020    1.8310 c3        1 T80     -0.080400
     36 C36        29.5410   19.8110    0.9520 c3        1 T80     -0.092100
     37 H11        -2.0500   -2.3420   -0.6510 h1        1 T80      0.033700
     38 H12        -2.4980   -1.5450   -2.2460 h1        1 T80      0.033700
     39 H13        -0.7830   -2.1450   -1.9580 h1        1 T80      0.033700
     40 H31        -0.7060   -0.9810    0.8650 h1        1 T80      0.040200
     41 H32         0.5630   -0.8030   -0.4400 h1        1 T80      0.040200
     42 H41         0.1850    1.6820   -0.5090 h1        1 T80      0.040700
     43 H42        -1.1580    1.5330    0.7240 h1        1 T80      0.040700
     44 H61         0.1320    2.8180    2.3870 h1        1 T80      0.044700
     45 H62         1.3390    3.0720    1.0290 h1        1 T80      0.044700
     46 H71         2.3690    1.2010    3.1480 h1        1 T80      0.043700
     47 H72         1.9670    2.8620    3.8150 h1        1 T80      0.043700
     48 H91         4.3860    2.9880    4.0660 h1        1 T80      0.043700
     49 H92         4.7710    1.5220    3.0320 h1        1 T80      0.043700
     50 H101        6.5710    2.7720    2.2470 h1        1 T80      0.044200
     51 H102        5.3180    3.7100    1.2880 h1        1 T80      0.044200
     52 H121        6.3050    5.9160    1.6090 h1        1 T80      0.044700
     53 H122        7.7340    4.9050    2.1610 h1        1 T80      0.044700
     54 H131        6.4600    6.4400    4.4170 h1        1 T80      0.043700
     55 H132        7.0900    7.5340    3.0860 h1        1 T80      0.043700
     56 H151        8.7030    8.1550    4.8080 h1        1 T80      0.044200
     57 H152        8.3070    6.7750    5.9530 h1        1 T80      0.044200
     58 H161       10.6880    5.8210    4.8480 h1        1 T80      0.067200
     59 H162       10.6290    6.8640    6.3570 h1        1 T80      0.067200
     60 H201       12.3880    9.7560    3.7370 hc        1 T80      0.078200
     61 H202       13.1350    8.5120    2.6490 hc        1 T80      0.078200
     62 H211       15.0530    8.2690    4.3190 hc        1 T80      0.057700
     63 H212       14.3330    9.6020    5.3000 hc        1 T80      0.057700
     64 H221       14.4800   11.1480    3.3080 hc        1 T80      0.040700
     65 H222       15.2180    9.8180    2.3360 hc        1 T80      0.040700
     66 H231       16.3760   10.9950    4.9580 hc        1 T80      0.042700
     67 H232       17.1110    9.6600    3.9910 hc        1 T80      0.042700
     68 H241       16.5390   12.5280    2.9660 hc        1 T80      0.039700
     69 H242       17.2710   11.1920    1.9970 hc        1 T80      0.039700
     70 H251       19.1670   11.0350    3.6490 hc        1 T80      0.040200
     71 H252       18.4360   12.3720    4.6160 hc        1 T80      0.040200
     72 H261       18.5990   13.9040    2.6230 hc        1 T80      0.039700
     73 H262       19.3270   12.5660    1.6540 hc        1 T80      0.039700
     74 H271       21.2260   12.4060    3.3020 hc        1 T80      0.039700
     75 H272       20.4980   13.7440    4.2710 hc        1 T80      0.039700
     76 H281       21.3860   13.9370    1.3080 hc        1 T80      0.039700
     77 H282       20.6600   15.2760    2.2780 hc        1 T80      0.039700
     78 H291       22.5610   15.1140    3.9230 hc        1 T80      0.039700
     79 H292       23.2860   13.7750    2.9540 hc        1 T80      0.039700
     80 H301       23.4470   15.3050    0.9600 hc        1 T80      0.039700
     81 H302       22.7230   16.6450    1.9290 hc        1 T80      0.039700
     82 H311       24.6240   16.4830    3.5730 hc        1 T80      0.039700
     83 H312       25.3480   15.1420    2.6050 hc        1 T80      0.039700
     84 H321       24.7860   18.0120    1.5780 hc        1 T80      0.039700
     85 H322       25.5090   16.6710    0.6100 hc        1 T80      0.039700
     86 H331       26.6880   17.8490    3.2230 hc        1 T80      0.039700
     87 H332       27.4100   16.5080    2.2540 hc        1 T80      0.039700
     88 H341       26.8510   19.3780    1.2270 hc        1 T80      0.039700
     89 H342       27.5730   18.0370    0.2590 hc        1 T80      0.039700
     90 H351       29.4720   17.8720    1.9030 hc        1 T80      0.038700
     91 H352       28.7500   19.2140    2.8710 hc        1 T80      0.038700
     92 H361       29.6710   19.4090   -0.0820 hc        1 T80      0.032700
     93 H362       28.9470   20.7540    0.8880 hc        1 T80      0.032700
     94 H363       30.5500   20.0570    1.3630 hc        1 T80      0.032700
@<TRIPOS>BOND
     1    1    2 1   
     2    1   37 1   
     3    1   38 1   
     4    1   39 1   
     5    2    3 1   
     6    3    4 1   
     7    3   40 1   
     8    3   41 1   
     9    4    5 1   
    10    4   42 1   
    11    4   43 1   
    12    5    6 1   
    13    6    7 1   
    14    6   44 1   
    15    6   45 1   
    16    7    8 1   
    17    7   46 1   
    18    7   47 1   
    19    8    9 1   
    20    9   10 1   
    21    9   48 1   
    22    9   49 1   
    23   10   11 1   
    24   10   50 1   
    25   10   51 1   
    26   11   12 1   
    27   12   13 1   
    28   12   52 1   
    29   12   53 1   
    30   13   14 1   
    31   13   54 1   
    32   13   55 1   
    33   14   15 1   
    34   15   16 1   
    35   15   56 1   
    36   15   57 1   
    37   16   17 1   
    38   16   58 1   
    39   16   59 1   
    40   17   18 1   
    41   18   19 2   
    42   18   20 1   
    43   20   21 1   
    44   20   60 1   
    45   20   61 1   
    46   21   22 1   
    47   21   62 1   
    48   21   63 1   
    49   22   23 1   
    50   22   64 1   
    51   22   65 1   
    52   23   24 1   
    53   23   66 1   
    54   23   67 1   
    55   24   25 1   
    56   24   68 1   
    57   24   69 1   
    58   25   26 1   
    59   25   70 1   
    60   25   71 1   
    61   26   27 1   
    62   26   72 1   
    63   26   73 1   
    64   27   28 1   
    65   27   74 1   
    66   27   75 1   
    67   28   29 1   
    68   28   76 1   
    69   28   77 1   
    70   29   30 1   
    71   29   78 1   
    72   29   79 1   
    73   30   31 1   
    74   30   80 1   
    75   30   81 1   
    76   31   32 1   
    77   31   82 1   
    78   31   83 1   
    79   32   33 1   
    80   32   84 1   
    81   32   85 1   
    82   33   34 1   
    83   33   86 1   
    84   33   87 1   
    85   34   35 1   
    86   34   88 1   
    87   34   89 1   
    88   35   36 1   
    89   35   90 1   
    90   35   91 1   
    91   36   92 1   
    92   36   93 1   
    93   36   94 1   
@<TRIPOS>SUBSTRUCTURE
     1 T80         1 TEMP              0 ****  ****    0 ROOT
