@<TRIPOS>MOLECULE
molecule
   94    93     1     0     0
SMALL
bcc


@<TRIPOS>ATOM
      1 C1           0.0000     0.0000     0.0000 c3         1 T80       0.114700
      2 O2           1.4280     0.0000     0.0000 os         1 T80      -0.396600
      3 C3           1.8410     0.0000     1.3690 c3         1 T80       0.126400
      4 C4           3.3690    -0.0000     1.4410 c3         1 T80       0.126400
      5 O5           3.8780     1.1650     0.7900 os         1 T80      -0.383600
      6 C6           5.3020     1.1070     0.8910 c3         1 T80       0.126400
      7 C7           5.9120     2.3340     0.2100 c3         1 T80       0.126400
      8 O8           5.4380     3.5180     0.8510 os         1 T80      -0.384600
      9 C9           6.0400     4.6240     0.1730 c3         1 T80       0.126400
     10 C10          5.5710     5.9320     0.8130 c3         1 T80       0.126400
     11 O11          5.9530     5.9520     2.1900 os         1 T80      -0.384600
     12 C12          5.4890     7.1910     2.7290 c3         1 T80       0.126400
     13 C13          5.8680     7.2770     4.2090 c3         1 T80       0.126400
     14 O14          7.2880     7.2010     4.3430 os         1 T80      -0.385600
     15 C15          7.5770     7.2880     5.7390 c3         1 T80       0.123400
     16 C16          9.0890     7.2120     5.9530 c3         1 T80       0.158400
     17 O17          9.7320     8.3130     5.2570 os         1 T80      -0.431900
     18 C18         11.0670     8.4500     5.3050 c          1 T80       0.636100
     19 O19         11.7340     7.6560     5.9260 o          1 T80      -0.556000
     20 C20         11.7340     9.5920     4.5840 c3         1 T80      -0.123400
     21 C21         13.2460     9.5170     4.7970 c3         1 T80      -0.072400
     22 C22         13.9230    10.6760     4.0650 c3         1 T80      -0.083400
     23 C23         15.4350    10.6010     4.2790 c3         1 T80      -0.080400
     24 C24         16.1130    11.7610     3.5470 c3         1 T80      -0.082400
     25 C25         17.6260    11.6860     3.7600 c3         1 T80      -0.081400
     26 C26         18.3040    12.8460     3.0280 c3         1 T80      -0.081400
     27 C27         19.8160    12.7710     3.2420 c3         1 T80      -0.081400
     28 C28         20.4930    13.9300     2.5100 c3         1 T80      -0.082400
     29 C29         22.0060    13.8560     2.7240 c3         1 T80      -0.081400
     30 C30         22.6830    15.0160     1.9910 c3         1 T80      -0.081400
     31 C31         24.1960    14.9420     2.2040 c3         1 T80      -0.082400
     32 C32         24.8730    16.1010     1.4730 c3         1 T80      -0.081400
     33 C33         26.3860    16.0260     1.6860 c3         1 T80      -0.082400
     34 C34         27.0630    17.1860     0.9540 c3         1 T80      -0.081400
     35 C35         28.5760    17.1110     1.1670 c3         1 T80      -0.084400
     36 C36         29.2540    18.2710     0.4360 c3         1 T80      -0.092100
     37 H11         -0.3610     0.8840     0.5120 h1         1 T80       0.029367
     38 H12         -0.3610    -0.8850     0.5090 h1         1 T80       0.029367
     39 H13         -0.3610     0.0010    -1.0210 h1         1 T80       0.029367
     40 H31          1.4550    -0.8840     1.8620 h1         1 T80       0.034200
     41 H32          1.4560     0.8850     1.8620 h1         1 T80       0.034200
     42 H41          3.7540    -0.8860     0.9500 h1         1 T80       0.031700
     43 H42          3.6820     0.0010     2.4790 h1         1 T80       0.031700
     44 H61          5.5890     1.0940     1.9350 h1         1 T80       0.032700
     45 H62          5.6620     0.2080     0.4060 h1         1 T80       0.032700
     46 H71          6.9910     2.2890     0.2860 h1         1 T80       0.033200
     47 H72          5.6230     2.3480    -0.8340 h1         1 T80       0.033200
     48 H91          5.7500     4.6080    -0.8710 h1         1 T80       0.033700
     49 H92          7.1180     4.5500     0.2500 h1         1 T80       0.033700
     50 H101         4.4930     6.0060     0.7370 h1         1 T80       0.033700
     51 H102         6.0280     6.7700     0.3000 h1         1 T80       0.033700
     52 H121         5.9460     8.0130     2.1910 h1         1 T80       0.033700
     53 H122         4.4120     7.2480     2.6280 h1         1 T80       0.033700
     54 H131         5.4100     6.4550     4.7470 h1         1 T80       0.033700
     55 H132         5.5160     8.2160     4.6170 h1         1 T80       0.033700
     56 H151         7.0970     6.4670     6.2580 h1         1 T80       0.036700
     57 H152         7.2040     8.2280     6.1270 h1         1 T80       0.036700
     58 H161         9.4620     6.2720     5.5640 h1         1 T80       0.057200
     59 H162         9.3080     7.2770     7.0120 h1         1 T80       0.057200
     60 H201        11.3610    10.5310     4.9730 hc         1 T80       0.071700
     61 H202        11.5140     9.5270     3.5250 hc         1 T80       0.071700
     62 H211        13.6190     8.5770     4.4070 hc         1 T80       0.058700
     63 H212        13.4650     9.5800     5.8560 hc         1 T80       0.058700
     64 H221        13.5500    11.6160     4.4550 hc         1 T80       0.040200
     65 H222        13.7050    10.6120     3.0060 hc         1 T80       0.040200
     66 H231        15.6540    10.6660     5.3380 hc         1 T80       0.044200
     67 H232        15.8090     9.6610     3.8910 hc         1 T80       0.044200
     68 H241        15.8950    11.6960     2.4880 hc         1 T80       0.040700
     69 H242        15.7400    12.7000     3.9350 hc         1 T80       0.040700
     70 H251        17.8440    11.7510     4.8190 hc         1 T80       0.041700
     71 H252        17.9990    10.7460     3.3720 hc         1 T80       0.041700
     72 H261        18.0850    12.7800     1.9690 hc         1 T80       0.040700
     73 H262        17.9300    13.7850     3.4160 hc         1 T80       0.040700
     74 H271        20.0350    12.8360     4.3010 hc         1 T80       0.041700
     75 H272        20.1900    11.8320     2.8530 hc         1 T80       0.041700
     76 H281        20.2740    13.8660     1.4510 hc         1 T80       0.040700
     77 H282        20.1190    14.8700     2.8990 hc         1 T80       0.040700
     78 H291        22.2250    13.9210     3.7830 hc         1 T80       0.040700
     79 H292        22.3800    12.9160     2.3350 hc         1 T80       0.040700
     80 H301        22.4650    14.9510     0.9320 hc         1 T80       0.040700
     81 H302        22.3100    15.9560     2.3790 hc         1 T80       0.040700
     82 H311        24.4140    15.0060     3.2640 hc         1 T80       0.040700
     83 H312        24.5700    14.0020     1.8150 hc         1 T80       0.040700
     84 H321        24.5010    17.0410     1.8630 hc         1 T80       0.040700
     85 H322        24.6540    16.0370     0.4140 hc         1 T80       0.040700
     86 H331        26.6050    16.0900     2.7450 hc         1 T80       0.040700
     87 H332        26.7590    15.0860     1.2960 hc         1 T80       0.040700
     88 H341        26.6900    18.1250     1.3440 hc         1 T80       0.040700
     89 H342        26.8440    17.1220    -0.1050 hc         1 T80       0.040700
     90 H351        28.9490    16.1710     0.7780 hc         1 T80       0.039700
     91 H352        28.7950    17.1750     2.2260 hc         1 T80       0.039700
     92 H361        30.3250    18.2170     0.5870 hc         1 T80       0.032367
     93 H362        29.0350    18.2070    -0.6240 hc         1 T80       0.032367
     94 H363        28.8810    19.2100     0.8250 hc         1 T80       0.032367
@<TRIPOS>BOND
     1     1     2 1
     2     1    37 1
     3     1    38 1
     4     1    39 1
     5     2     3 1
     6     3     4 1
     7     3    40 1
     8     3    41 1
     9     4     5 1
    10     4    42 1
    11     4    43 1
    12     5     6 1
    13     6     7 1
    14     6    44 1
    15     6    45 1
    16     7     8 1
    17     7    46 1
    18     7    47 1
    19     8     9 1
    20     9    10 1
    21     9    48 1
    22     9    49 1
    23    10    11 1
    24    10    50 1
    25    10    51 1
    26    11    12 1
    27    12    13 1
    28    12    52 1
    29    12    53 1
    30    13    14 1
    31    13    54 1
    32    13    55 1
    33    14    15 1
    34    15    16 1
    35    15    56 1
    36    15    57 1
    37    16    17 1
    38    16    58 1
    39    16    59 1
    40    17    18 1
    41    18    19 2
    42    18    20 1
    43    20    21 1
    44    20    60 1
    45    20    61 1
    46    21    22 1
    47    21    62 1
    48    21    63 1
    49    22    23 1
    50    22    64 1
    51    22    65 1
    52    23    24 1
    53    23    66 1
    54    23    67 1
    55    24    25 1
    56    24    68 1
    57    24    69 1
    58    25    26 1
    59    25    70 1
    60    25    71 1
    61    26    27 1
    62    26    72 1
    63    26    73 1
    64    27    28 1
    65    27    74 1
    66    27    75 1
    67    28    29 1
    68    28    76 1
    69    28    77 1
    70    29    30 1
    71    29    78 1
    72    29    79 1
    73    30    31 1
    74    30    80 1
    75    30    81 1
    76    31    32 1
    77    31    82 1
    78    31    83 1
    79    32    33 1
    80    32    84 1
    81    32    85 1
    82    33    34 1
    83    33    86 1
    84    33    87 1
    85    34    35 1
    86    34    88 1
    87    34    89 1
    88    35    36 1
    89    35    90 1
    90    35    91 1
    91    36    92 1
    92    36    93 1
    93    36    94 1
@<TRIPOS>SUBSTRUCTURE
     1 T80         1 TEMP              0 ****  ****    0 ROOT
