@<TRIPOS>MOLECULE
molecule
   35    36     1     0     0
SMALL
bcc


@<TRIPOS>ATOM
      1 Cl1          0.0000     0.0000     0.0000 cl         1 T86      -0.090400
      2 Cl2          4.6680    -0.0010     2.7140 cl         1 T86      -0.039400
      3 C1           4.5070     0.0000     0.0000 ca         1 T86      -0.149600
      4 C2           3.8060     0.0000     1.2090 ca         1 T86       0.087400
      5 C3           2.4240    -0.0000     1.2010 ca         1 T86      -0.130000
      6 C4           1.7360     0.0000     0.0010 ca         1 T86       0.057400
      7 C5           2.4260     0.0000    -1.2010 ca         1 T86      -0.133000
      8 C6           3.8040     0.0050    -1.2080 ca         1 T86      -0.089000
      9 N13          6.6560     0.0010    -1.1680 ns         1 T86      -0.468100
     10 C14         10.7090    -1.0150    -1.7470 ca         1 T86      -0.085000
     11 C15         10.0380    -1.6310    -0.6870 ca         1 T86      -0.157600
     12 C16          8.6800    -1.3760    -0.4810 ca         1 T86      -0.030000
     13 C17          8.0050    -0.5150    -1.3270 ca         1 T86       0.037600
     14 C18          8.6830     0.0960    -2.3830 ca         1 T86       0.134100
     15 C19         10.0320    -0.1570    -2.5860 ca         1 T86      -0.215000
     16 O23          6.5920     0.0010     1.0520 o          1 T86      -0.559100
     17 O24          8.0640     1.0550    -3.1200 os         1 T86      -0.325900
     18 C25          8.8140     1.6400    -4.1860 c3         1 T86       0.127700
     19 N27         12.0720    -2.7950     0.0120 ns         1 T86      -0.472400
     20 O28         12.7680    -3.6770     0.8760 oh         1 T86      -0.358100
     21 O29         10.1780    -3.0860     1.1340 o          1 T86      -0.568100
     22 H1           1.8780    -0.0010     2.1370 ha         1 T86       0.163000
     23 H2           1.8810     0.0040    -2.1370 ha         1 T86       0.151000
     24 H3           4.3420     0.0050    -2.1480 ha         1 T86       0.139000
     25 H4           6.0680     0.1170    -1.9700 hn         1 T86       0.319500
     26 H5          11.7620    -1.2120    -1.9080 ha         1 T86       0.124000
     27 H6           8.1570    -1.8520     0.3400 ha         1 T86       0.186000
     28 H7          10.5540     0.3190    -3.4070 ha         1 T86       0.142000
     29 H8           8.2080     2.3830    -4.6890 h1         1 T86       0.045367
     30 H9           9.1000     0.8690    -4.8920 h1         1 T86       0.045367
     31 H10          9.7040     2.1100    -3.7860 h1         1 T86       0.045367
     32 H11         13.6520    -3.7880     0.5660 ho         1 T86       0.397000
     33 H12         12.5570    -2.3440    -0.7390 hn         1 T86       0.319500
     34 C12          5.9830     0.0010    -0.0010 c          1 T86       0.660700
     35 C26         10.7630    -2.5500     0.2120 c          1 T86       0.691700
@<TRIPOS>BOND
     1     1     6 1
     2     6     5 ar
     3     6     7 ar
     4     5     4 ar
     5     7     8 ar
     6     4     2 1
     7     4     3 ar
     8     8     3 ar
     9     3    34 1
    10    34     9 1
    11    34    16 2
    12     9    13 1
    13    21    35 2
    14    12    13 ar
    15    12    11 ar
    16    13    14 ar
    17    35    11 1
    18    35    19 1
    19    20    19 1
    20    11    10 ar
    21    14    17 1
    22    14    15 ar
    23    17    18 1
    24    10    15 ar
    25     5    22 1
    26     7    23 1
    27     8    24 1
    28     9    25 1
    29    10    26 1
    30    12    27 1
    31    15    28 1
    32    18    29 1
    33    18    30 1
    34    18    31 1
    35    20    32 1
    36    19    33 1
@<TRIPOS>SUBSTRUCTURE
     1 T86         1 TEMP              0 ****  ****    0 ROOT
