@<TRIPOS>MOLECULE
T87
   71    75     1     0     0
SMALL
bcc


@<TRIPOS>ATOM
      1 N1           0.0000     0.0000     0.0000 n2         1 T87      -0.571100
      2 N2           1.8010    -0.0280    -1.2310 nz         1 T87       0.125400
      3 C1           1.3260     0.0000     0.0000 ce         1 T87       0.286800
      4 C2           2.1190     0.0000     1.1550 ca         1 T87      -0.301900
      5 C3           1.5340     0.0500     2.4580 ca         1 T87       0.015500
      6 C4           2.3220     0.0470     3.6140 ca         1 T87      -0.163500
      7 C5           3.7290    -0.0100     3.5180 ca         1 T87       0.138600
      8 C6           4.3430    -0.0600     2.2540 ca         1 T87      -0.163500
      9 C7           3.5560    -0.0550     1.0910 ca         1 T87       0.015500
     10 N            4.5740    -0.0190     4.6830 nu         1 T87      -0.406600
     11 C            4.2300     0.3850     6.0670 c3         1 T87       0.161500
     12 N3           2.3400     2.0120     6.2970 nc         1 T87      -0.506100
     13 C8           3.7210     1.8220     6.2390 cd         1 T87       0.166800
     14 N9           4.6050     2.9200     6.3330 na         1 T87       0.321700
     15 C3A          3.6460     3.9250     6.4660 ca         1 T87      -0.258200
     16 C7A          2.3050     3.3800     6.4430 ca         1 T87       0.059400
     17 C10          3.8340     5.3380     6.6100 ca         1 T87      -0.127000
     18 C11          2.7080     6.1690     6.7210 ca         1 T87      -0.103000
     19 C12          1.3770     5.6450     6.7010 ca         1 T87       0.003700
     20 C13          1.1720     4.2450     6.5620 ca         1 T87      -0.061000
     21 C14          6.0980     3.0020     6.3000 c3         1 T87       0.036600
     22 C9          -1.2660     6.1670     7.0620 cx         1 T87      -0.054400
     23 C15         -0.7930     6.3890     5.6050 cx         1 T87      -0.054400
     24 C16          0.1480     6.6150     6.7610 cx         1 T87      -0.132000
     25 C17          0.5980     7.9120     7.4940 ce         1 T87       0.362300
     26 N4           0.6670     7.9290     8.8070 n2         1 T87      -0.374200
     27 N5           0.6810    10.4810     7.1180 nb         1 T87      -0.585000
     28 C18          0.9790     9.1730     6.6530 ca         1 T87       0.362000
     29 C19          1.6320     9.0220     5.4070 ca         1 T87      -0.218300
     30 C20          1.9790    10.1620     4.6450 ca         1 T87      -0.065000
     31 C21          1.6800    11.4680     5.1110 ca         1 T87      -0.213300
     32 C22          1.0300    11.6310     6.3490 ca         1 T87       0.422200
     33 OH           0.3010     6.7110     9.5810 os         1 T87      -0.192300
     34 C23          0.4540     6.9430    10.9830 c3         1 T87       0.183400
     35 C24          0.1370     5.6440    11.7440 c          1 T87       0.676100
     36 O2          -0.4030     5.7110    12.8590 o          1 T87      -0.568000
     37 O3           0.4600     4.4300    11.1720 os         1 T87      -0.388900
     38 C25          0.0840     2.0200    11.1910 c3         1 T87      -0.001100
     39 C26          0.0950     3.3210    12.0190 c3         1 T87       0.202400
     40 HN1         -0.5010    -0.0100    -0.8660 hn         1 T87       0.338400
     41 HN21         2.3150    -0.8750    -1.3710 hn         1 T87       0.222467
     42 HN22         1.0430     0.0150    -1.8820 hn         1 T87       0.222467
     43 HC3          0.4550     0.0910     2.5530 ha         1 T87       0.100500
     44 HC4          1.8500     0.0660     4.5880 ha         1 T87       0.142000
     45 HC6          5.4210    -0.1310     2.1780 ha         1 T87       0.142000
     46 HC7          4.0420    -0.0950     0.1230 ha         1 T87       0.100500
     47 HN           5.5120    -0.3380     4.5410 hn         1 T87       0.286800
     48 H1C          5.1140     0.2650     6.6820 h1         1 T87       0.035700
     49 H2C          3.4670    -0.2900     6.4350 h1         1 T87       0.035700
     50 H10C         4.8060     5.8170     6.6130 ha         1 T87       0.110000
     51 H11C         3.2810     7.0630     6.9340 ha         1 T87       0.135000
     52 H13C         0.3010     3.6100     6.4560 ha         1 T87       0.130000
     53 H141         6.5190     2.0710     6.6600 h1         1 T87       0.024367
     54 H142         6.4290     3.8170     6.9330 h1         1 T87       0.024367
     55 H143         6.4280     3.1780     5.2840 h1         1 T87       0.024367
     56 HC91        -1.3750     5.1340     7.3670 hc         1 T87       0.054950
     57 HC92        -1.9240     6.9290     7.4620 hc         1 T87       0.054950
     58 H151        -0.6180     5.4890     5.0270 hc         1 T87       0.054950
     59 H152        -1.1670     7.2850     5.1230 hc         1 T87       0.054950
     60 H19C         1.8680     8.0310     5.0370 ha         1 T87       0.121000
     61 H20C         2.4790    10.0360     3.6920 ha         1 T87       0.104000
     62 H21C         1.9500    12.3340     4.5190 ha         1 T87       0.117000
     63 H22          0.7960    12.6230     6.7160 h4         1 T87      -0.007900
     64 H231         1.4720     7.2460    11.1920 h1         1 T87       0.030700
     65 H232        -0.2290     7.7230    11.2980 h1         1 T87       0.030700
     66 H251         1.0850     1.8120    10.8320 hc         1 T87       0.008700
     67 H252        -0.5860     2.1350    10.3470 hc         1 T87       0.008700
     68 H253        -0.2540     1.2000    11.8120 hc         1 T87       0.008700
     69 H261         0.8140     3.2300    12.8240 h1         1 T87       0.015700
     70 H262        -0.8910     3.4930    12.4340 h1         1 T87       0.015700
     71 H23          2.3940     0.7660    -1.3780 hn         1 T87       0.222467
@<TRIPOS>BOND
     1     1     3 2   
     2     1    40 1   
     3     2     3 1   
     4     2    41 1   
     5     2    42 1   
     6     2    71 1   
     7     3     4 1   
     8     4     5 ar  
     9     4     9 ar  
    10     5     6 ar  
    11     5    43 1   
    12     6     7 ar  
    13     6    44 1   
    14     7     8 ar  
    15     7    10 1   
    16     8     9 ar  
    17     8    45 1   
    18     9    46 1   
    19    10    11 1   
    20    10    47 1   
    21    11    13 1   
    22    11    48 1   
    23    11    49 1   
    24    12    13 2   
    25    12    16 1   
    26    13    14 1   
    27    14    15 1   
    28    14    21 1   
    29    15    16 ar  
    30    15    17 ar  
    31    16    20 ar  
    32    17    18 ar  
    33    17    50 1   
    34    18    19 ar  
    35    18    51 1   
    36    19    20 ar  
    37    19    24 1   
    38    20    52 1   
    39    21    53 1   
    40    21    54 1   
    41    21    55 1   
    42    22    23 1   
    43    22    24 1   
    44    22    56 1   
    45    22    57 1   
    46    23    24 1   
    47    23    58 1   
    48    23    59 1   
    49    24    25 1   
    50    25    26 2   
    51    25    28 1   
    52    26    33 1   
    53    27    28 ar  
    54    27    32 ar  
    55    28    29 ar  
    56    29    30 ar  
    57    29    60 1   
    58    30    31 ar  
    59    30    61 1   
    60    31    32 ar  
    61    31    62 1   
    62    32    63 1   
    63    33    34 1   
    64    34    35 1   
    65    34    64 1   
    66    34    65 1   
    67    35    36 2   
    68    35    37 1   
    69    37    39 1   
    70    38    39 1   
    71    38    66 1   
    72    38    67 1   
    73    38    68 1   
    74    39    69 1   
    75    39    70 1   
@<TRIPOS>SUBSTRUCTURE
     1 T87         1 TEMP              0 ****  ****    0 ROOT
