@<TRIPOS>MOLECULE
molecule
   71    75     1     0     0
SMALL
bcc


@<TRIPOS>ATOM
      1 N1           0.0000     0.0000     0.0000 n2         1 T87      -0.783100
      2 N2           1.8010    -0.0280    -1.2310 nz         1 T87      -0.731600
      3 C1           1.3260     0.0000     0.0000 ce         1 T87       0.546800
      4 C2           2.1190     0.0000     1.1550 ca         1 T87      -0.327900
      5 C3           1.5340     0.0500     2.4580 ca         1 T87      -0.039000
      6 C4           2.3220     0.0470     3.6140 ca         1 T87      -0.177000
      7 C5           3.7290    -0.0100     3.5180 ca         1 T87       0.270600
      8 C6           4.3430    -0.0600     2.2540 ca         1 T87      -0.177000
      9 C7           3.5560    -0.0550     1.0910 ca         1 T87      -0.039000
     10 N            4.5740    -0.0190     4.6830 nu         1 T87      -0.813600
     11 C            4.2300     0.3850     6.0670 c3         1 T87       0.222500
     12 N3           2.3400     2.0120     6.2970 nc         1 T87      -0.540100
     13 C8           3.7210     1.8220     6.2390 cd         1 T87       0.334800
     14 N9           4.6050     2.9200     6.3330 na         1 T87      -0.138300
     15 C3A          3.6460     3.9250     6.4660 ca         1 T87      -0.091200
     16 C7A          2.3050     3.3800     6.4430 ca         1 T87       0.050400
     17 C10          3.8340     5.3380     6.6100 ca         1 T87      -0.161000
     18 C11          2.7080     6.1690     6.7210 ca         1 T87      -0.119000
     19 C12          1.3770     5.6450     6.7010 ca         1 T87      -0.009300
     20 C13          1.1720     4.2450     6.5620 ca         1 T87      -0.079000
     21 C14          6.0980     3.0020     6.3000 c3         1 T87       0.077600
     22 C9          -1.2660     6.1670     7.0620 cx         1 T87      -0.105900
     23 C15         -0.7930     6.3890     5.6050 cx         1 T87      -0.105900
     24 C16          0.1480     6.6150     6.7610 cx         1 T87      -0.145000
     25 C17          0.5980     7.9120     7.4940 ce         1 T87       0.370300
     26 N4           0.6670     7.9290     8.8070 n2         1 T87      -0.388200
     27 N5           0.6810    10.4810     7.1180 nb         1 T87      -0.647000
     28 C18          0.9790     9.1730     6.6530 ca         1 T87       0.383000
     29 C19          1.6320     9.0220     5.4070 ca         1 T87      -0.230300
     30 C20          1.9790    10.1620     4.6450 ca         1 T87      -0.096000
     31 C21          1.6800    11.4680     5.1110 ca         1 T87      -0.239300
     32 C22          1.0300    11.6310     6.3490 ca         1 T87       0.408200
     33 OH           0.3010     6.7110     9.5810 os         1 T87      -0.200300
     34 C23          0.4540     6.9430    10.9830 c3         1 T87       0.107400
     35 C24          0.1370     5.6440    11.7440 c          1 T87       0.620100
     36 O2          -0.4030     5.7110    12.8590 o          1 T87      -0.534000
     37 O3           0.4600     4.4300    11.1720 os         1 T87      -0.396900
     38 C25          0.0840     2.0200    11.1910 c3         1 T87      -0.094100
     39 C26          0.0950     3.3210    12.0190 c3         1 T87       0.122400
     40 HN1         -0.5010     0.0100     0.8660 hn         1 T87       0.466400
     41 HN21         2.4090     0.7550    -1.3720 hn         1 T87       0.469467
     42 HN22         2.3120    -0.8760    -1.3720 hn         1 T87       0.469467
     43 HC3          0.4550     0.0920     2.5530 ha         1 T87       0.125500
     44 HC4          1.8500     0.0660     4.5880 ha         1 T87       0.171000
     45 HC6          5.4210    -0.1330     2.1780 ha         1 T87       0.171000
     46 HC7          4.0420    -0.0950     0.1230 ha         1 T87       0.125500
     47 HN           5.5120    -0.3380     4.5410 hn         1 T87       0.437800
     48 H1C          5.1140     0.2650     6.6820 h1         1 T87       0.073700
     49 H2C          3.4670    -0.2900     6.4350 h1         1 T87       0.073700
     50 H10C         4.8010     5.8260     6.6270 ha         1 T87       0.135000
     51 H11C         3.2920     7.0560     6.9330 ha         1 T87       0.162000
     52 H13C         0.2980     3.6100     6.4860 ha         1 T87       0.158000
     53 H141         6.5090     2.4400     7.1300 h1         1 T87       0.059367
     54 H142         6.4040     4.0380     6.3790 h1         1 T87       0.059367
     55 H143         6.4620     2.5870     5.3680 h1         1 T87       0.059367
     56 HC91        -1.9240     6.9290     7.4620 hc         1 T87       0.085950
     57 HC92        -1.3750     5.1340     7.3670 hc         1 T87       0.085950
     58 H151        -0.6180     5.4890     5.0270 hc         1 T87       0.085950
     59 H152        -1.1670     7.2850     5.1230 hc         1 T87       0.085950
     60 H19C         1.8680     8.0310     5.0370 ha         1 T87       0.146000
     61 H20C         2.4790    10.0360     3.6920 ha         1 T87       0.138000
     62 H21C         1.9500    12.3340     4.5190 ha         1 T87       0.146000
     63 H22          0.7960    12.6230     6.7160 h4         1 T87       0.042100
     64 H231        -0.2290     7.7230    11.2980 h1         1 T87       0.074700
     65 H232         1.4720     7.2460    11.1920 h1         1 T87       0.074700
     66 H251         1.0730     1.8420    10.7860 hc         1 T87       0.044700
     67 H252        -0.6270     2.1150    10.3790 hc         1 T87       0.044700
     68 H253        -0.2010     1.1900    11.8260 hc         1 T87       0.044700
     69 H261        -0.8910     3.4930    12.4340 h1         1 T87       0.054200
     70 H262         0.8140     3.2300    12.8240 h1         1 T87       0.054200
     71 H23          1.0440     0.0290    -1.8820 hn         1 T87       0.469467
@<TRIPOS>BOND
     1     1     3 2
     2     1    40 1
     3     2     3 1
     4     2    41 1
     5     2    42 1
     6     3     4 1
     7     4     5 ar
     8     4     9 ar
     9     5     6 ar
    10     5    43 1
    11     6     7 ar
    12     6    44 1
    13     7     8 ar
    14     7    10 1
    15     8     9 ar
    16     8    45 1
    17     9    46 1
    18    10    11 1
    19    10    47 1
    20    11    13 1
    21    11    48 1
    22    11    49 1
    23    12    13 2
    24    12    16 1
    25    13    14 1
    26    14    15 1
    27    14    21 1
    28    15    16 ar
    29    15    17 ar
    30    16    20 ar
    31    17    18 ar
    32    17    50 1
    33    18    19 ar
    34    18    51 1
    35    19    20 ar
    36    19    24 1
    37    20    52 1
    38    21    53 1
    39    21    54 1
    40    21    55 1
    41    22    23 1
    42    22    24 1
    43    22    56 1
    44    22    57 1
    45    23    24 1
    46    23    58 1
    47    23    59 1
    48    24    25 1
    49    25    26 2
    50    25    28 1
    51    26    33 1
    52    27    28 ar
    53    27    32 ar
    54    28    29 ar
    55    29    30 ar
    56    29    60 1
    57    30    31 ar
    58    30    61 1
    59    31    32 ar
    60    31    62 1
    61    32    63 1
    62    33    34 1
    63    34    35 1
    64    34    64 1
    65    34    65 1
    66    35    36 2
    67    35    37 1
    68    37    39 1
    69    38    39 1
    70    38    66 1
    71    38    67 1
    72    38    68 1
    73    39    69 1
    74    39    70 1
    75    71     2 1
@<TRIPOS>SUBSTRUCTURE
     1 T87         1 TEMP              0 ****  ****    0 ROOT
