@<TRIPOS>MOLECULE
molecule
   61    62     1     0     0
SMALL
bcc


@<TRIPOS>ATOM
      1 C01          0.0000     0.0000     0.0000 ca         1 T88       0.033400
      2 C02          1.3840     0.0000     0.0000 ca         1 T88       0.026400
      3 C03          2.0750     0.0000     1.1990 ca         1 T88      -0.111000
      4 C04          1.3830    -0.0010     2.3950 ca         1 T88      -0.116000
      5 C05          0.0000    -0.0020     2.3950 ca         1 T88      -0.074300
      6 C06         -0.6910     0.0040     1.1980 ca         1 T88      -0.114000
      7 C07         -0.7530     0.0030     3.7000 c3         1 T88      -0.035100
      8 C08         -1.0180    -1.4380     4.1410 c3         1 T88       0.165800
      9 N09         -1.6420    -1.4360     5.4710 n3         1 T88      -0.719600
     10 C10         -1.4900    -2.7440     6.1240 c3         1 T88       0.154800
     11 C11         -0.0550    -2.8970     6.6320 c3         1 T88      -0.079400
     12 C12          0.0690    -4.2000     7.4240 c3         1 T88      -0.086400
     13 C13          1.5040    -4.3540     7.9310 c3         1 T88      -0.090100
     14 C14         -3.0560    -1.0490     5.3880 c3         1 T88       0.164800
     15 C15         -3.6050    -0.8170     6.7970 c3         1 T88       0.152100
     16 C16         -5.1070    -0.5360     6.7200 c3         1 T88       0.106400
     17 O17         -5.6410    -0.4350     8.0420 os         1 T88      -0.330900
     18 C18         -6.9730    -0.1850     8.1520 ca         1 T88       0.152100
     19 C19         -7.7490    -0.0470     7.0110 ca         1 T88      -0.188000
     20 C20         -9.1020     0.2050     7.1220 ca         1 T88      -0.083500
     21 C21         -9.6860     0.3230     8.3770 ca         1 T88       0.072600
     22 C22         -8.9080     0.1840     9.5190 ca         1 T88      -0.083500
     23 C23         -7.5560    -0.0740     9.4060 ca         1 T88      -0.188000
     24 N24        -11.0560     0.5800     8.4900 nu         1 T88      -0.778500
     25 S25        -11.5830     2.0850     8.9380 s6         1 T88       1.325900
     26 C26        -11.0200     3.1770     7.6030 c3         1 T88      -0.243300
     27 O27        -12.9990     1.9770     8.9310 o          1 T88      -0.627800
     28 O28        -10.8740     2.3600    10.1390 o          1 T88      -0.627800
     29 O29         -2.9400     0.3010     7.3880 oh         1 T88      -0.584800
     30 Cl1          2.2520     0.0010    -1.5030 cl         1 T88      -0.087400
     31 Cl2         -0.8690     0.0010    -1.5040 cl         1 T88      -0.088400
     32 H1           3.1580     0.0000     1.2000 ha         1 T88       0.150000
     33 H2           1.9250    -0.0030     3.3330 ha         1 T88       0.144000
     34 H3          -1.7750     0.0040     1.1980 ha         1 T88       0.148000
     35 H4          -0.1640     0.5100     4.4550 hc         1 T88       0.063200
     36 H5          -1.6960     0.5200     3.5710 hc         1 T88       0.063200
     37 H6          -0.0810    -1.9810     4.1830 h1         1 T88       0.039700
     38 H7          -1.6810    -1.9170     3.4310 h1         1 T88       0.039700
     39 H9          -1.7080    -3.5310     5.4120 h1         1 T88       0.033700
     40 H10         -2.1780    -2.8120     6.9590 h1         1 T88       0.033700
     41 H11          0.1920    -2.0600     7.2730 hc         1 T88       0.050700
     42 H12          0.6250    -2.9200     5.7890 hc         1 T88       0.050700
     43 H13         -0.1780    -5.0380     6.7830 hc         1 T88       0.039200
     44 H14         -0.6110    -4.1770     8.2660 hc         1 T88       0.039200
     45 H15          1.5840    -5.2590     8.5210 hc         1 T88       0.034700
     46 H16          1.7640    -3.4990     8.5450 hc         1 T88       0.034700
     47 H17          2.1810    -4.4110     7.0880 hc         1 T88       0.034700
     48 H18         -3.6190    -1.8400     4.9070 h1         1 T88       0.044200
     49 H19         -3.1480    -0.1370     4.8100 h1         1 T88       0.044200
     50 H20         -3.4330    -1.7000     7.4010 h1         1 T88       0.047700
     51 H21         -5.2730     0.3940     6.1910 h1         1 T88       0.045200
     52 H22         -5.5990    -1.3450     6.1930 h1         1 T88       0.045200
     53 H23         -7.2940    -0.1390     6.0320 ha         1 T88       0.144500
     54 H24         -9.7080     0.3130     6.2310 ha         1 T88       0.148500
     55 H25         -9.3630     0.2730    10.4980 ha         1 T88       0.148500
     56 H26         -6.9490    -0.1820    10.2970 ha         1 T88       0.144500
     57 H27        -11.7170    -0.1530     8.3230 hn         1 T88       0.463800
     58 H28         -9.9600     3.3680     7.7150 h1         1 T88       0.098700
     59 H29        -11.5640     4.1130     7.6490 h1         1 T88       0.098700
     60 H30        -11.2020     2.7010     6.6470 h1         1 T88       0.098700
     61 H31         -2.8930     0.1820     8.3220 ho         1 T88       0.411000
@<TRIPOS>BOND
     1    20    19 ar
     2    20    21 ar
     3     7     5 1
     4     7     8 1
     5    19    18 ar
     6     5     6 ar
     7     5     4 ar
     8    24    21 1
     9    24    25 1
    10    21    22 ar
    11     6     1 ar
    12     4     3 ar
    13    18    17 1
    14    18    23 ar
    15     8     9 1
    16    17    16 1
    17     1     2 ar
    18     1    31 1
    19     3     2 ar
    20    29    15 1
    21     9    14 1
    22     9    10 1
    23     2    30 1
    24    22    23 ar
    25    28    25 2
    26    25    27 2
    27    25    26 1
    28    14    15 1
    29    11    10 1
    30    11    12 1
    31    16    15 1
    32    13    12 1
    33     3    32 1
    34     4    33 1
    35     6    34 1
    36     7    35 1
    37     7    36 1
    38     8    37 1
    39     8    38 1
    40    10    39 1
    41    10    40 1
    42    11    41 1
    43    11    42 1
    44    12    43 1
    45    12    44 1
    46    13    45 1
    47    13    46 1
    48    13    47 1
    49    14    48 1
    50    14    49 1
    51    15    50 1
    52    16    51 1
    53    16    52 1
    54    19    53 1
    55    20    54 1
    56    22    55 1
    57    23    56 1
    58    24    57 1
    59    26    58 1
    60    26    59 1
    61    26    60 1
    62    29    61 1
@<TRIPOS>SUBSTRUCTURE
     1 T88         1 TEMP              0 ****  ****    0 ROOT
