@<TRIPOS>MOLECULE
T88
   61    62     1     0     0
SMALL
bcc


@<TRIPOS>ATOM
      1 C01          0.0000     0.0000     0.0000 ca         1 T88      -0.036600
      2 C02          1.3840     0.0000     0.0000 ca         1 T88      -0.043600
      3 C03          2.0750     0.0000     1.1990 ca         1 T88      -0.086000
      4 C04          1.3830    -0.0010     2.3950 ca         1 T88      -0.087000
      5 C05          0.0000    -0.0020     2.3950 ca         1 T88      -0.078300
      6 C06         -0.6910     0.0040     1.1980 ca         1 T88      -0.091000
      7 C07         -0.7530     0.0030     3.7000 c3         1 T88       0.023900
      8 C08         -1.0180    -1.4380     4.1410 c3         1 T88       0.145800
      9 N09         -1.6420    -1.4360     5.4710 n3         1 T88      -0.523600
     10 C10         -1.4900    -2.7440     6.1240 c3         1 T88       0.135800
     11 C11         -0.0550    -2.8970     6.6320 c3         1 T88      -0.033400
     12 C12          0.0690    -4.2000     7.4240 c3         1 T88      -0.027400
     13 C13          1.5040    -4.3540     7.9310 c3         1 T88       0.006900
     14 C14         -3.0560    -1.0490     5.3880 c3         1 T88       0.140800
     15 C15         -3.6050    -0.8170     6.7970 c3         1 T88       0.179100
     16 C16         -5.1070    -0.5360     6.7200 c3         1 T88       0.168400
     17 O17         -5.6410    -0.4350     8.0420 os         1 T88      -0.307900
     18 C18         -6.9730    -0.1850     8.1520 ca         1 T88       0.156100
     19 C19         -7.7490    -0.0470     7.0110 ca         1 T88      -0.171500
     20 C20         -9.1020     0.2050     7.1220 ca         1 T88      -0.059000
     21 C21         -9.6860     0.3230     8.3770 ca         1 T88      -0.003400
     22 C22         -8.9080     0.1840     9.5190 ca         1 T88      -0.059000
     23 C23         -7.5560    -0.0740     9.4060 ca         1 T88      -0.171500
     24 N24        -11.0560     0.5800     8.4900 nu         1 T88      -0.427500
     25 S25        -11.5830     2.0850     8.9380 s6         1 T88       0.949900
     26 C26        -11.0200     3.1770     7.6030 c3         1 T88       0.013700
     27 O27        -12.9990     1.9770     8.9310 o          1 T88      -0.584300
     28 O28        -10.8740     2.3600    10.1390 o          1 T88      -0.584300
     29 O29         -2.9400     0.3010     7.3880 oh         1 T88      -0.568800
     30 Cl1          2.2520     0.0010    -1.5030 cl         1 T88      -0.005400
     31 Cl2         -0.8690     0.0010    -1.5040 cl         1 T88      -0.007400
     32 H1           3.1580     0.0000     1.2000 ha         1 T88       0.117000
     33 H2           1.9250    -0.0030     3.3330 ha         1 T88       0.114000
     34 H3          -1.7750     0.0040     1.1980 ha         1 T88       0.118000
     35 H4          -0.1640     0.5100     4.4550 hc         1 T88       0.031200
     36 H5          -1.6960     0.5200     3.5710 hc         1 T88       0.031200
     37 H6          -0.0810    -1.9810     4.1830 h1         1 T88       0.015200
     38 H7          -1.6810    -1.9170     3.4310 h1         1 T88       0.015200
     39 H9          -1.7080    -3.5310     5.4120 h1         1 T88       0.012700
     40 H10         -2.1780    -2.8120     6.9590 h1         1 T88       0.012700
     41 H11          0.1920    -2.0600     7.2730 hc         1 T88       0.023700
     42 H12          0.6250    -2.9200     5.7890 hc         1 T88       0.023700
     43 H13         -0.1780    -5.0380     6.7830 hc         1 T88       0.010700
     44 H14         -0.6110    -4.1770     8.2660 hc         1 T88       0.010700
     45 H15          1.5840    -5.2590     8.5210 hc         1 T88       0.001367
     46 H16          1.7640    -3.4990     8.5450 hc         1 T88       0.001367
     47 H17          2.1810    -4.4110     7.0880 hc         1 T88       0.001367
     48 H18         -3.6190    -1.8400     4.9070 h1         1 T88       0.019200
     49 H19         -3.1480    -0.1370     4.8100 h1         1 T88       0.019200
     50 H20         -3.4330    -1.7000     7.4010 h1         1 T88       0.017700
     51 H21         -5.2730     0.3940     6.1910 h1         1 T88       0.011700
     52 H22         -5.5990    -1.3450     6.1930 h1         1 T88       0.011700
     53 H23         -7.2940    -0.1390     6.0320 ha         1 T88       0.120000
     54 H24         -9.7080     0.3130     6.2310 ha         1 T88       0.118000
     55 H25         -9.3630     0.2730    10.4980 ha         1 T88       0.118000
     56 H26         -6.9490    -0.1820    10.2970 ha         1 T88       0.120000
     57 H27        -11.7170    -0.1530     8.3230 hn         1 T88       0.349800
     58 H28         -9.9600     3.3680     7.7150 h1         1 T88       0.063367
     59 H29        -11.5640     4.1130     7.6490 h1         1 T88       0.063367
     60 H30        -11.2020     2.7010     6.6470 h1         1 T88       0.063367
     61 H31         -2.8930     0.1820     8.3220 ho         1 T88       0.396000
@<TRIPOS>BOND
     1     1     2 ar  
     2     1     6 ar  
     3     1    31 1   
     4     2     3 ar  
     5     2    30 1   
     6     3     4 ar  
     7     3    32 1   
     8     4     5 ar  
     9     4    33 1   
    10     5     6 ar  
    11     5     7 1   
    12     6    34 1   
    13     7     8 1   
    14     7    35 1   
    15     7    36 1   
    16     8     9 1   
    17     8    37 1   
    18     8    38 1   
    19     9    10 1   
    20     9    14 1   
    21    10    11 1   
    22    10    39 1   
    23    10    40 1   
    24    11    12 1   
    25    11    41 1   
    26    11    42 1   
    27    12    13 1   
    28    12    43 1   
    29    12    44 1   
    30    13    45 1   
    31    13    46 1   
    32    13    47 1   
    33    14    15 1   
    34    14    48 1   
    35    14    49 1   
    36    15    16 1   
    37    15    29 1   
    38    15    50 1   
    39    16    17 1   
    40    16    51 1   
    41    16    52 1   
    42    17    18 1   
    43    18    19 ar  
    44    18    23 ar  
    45    19    20 ar  
    46    19    53 1   
    47    20    21 ar  
    48    20    54 1   
    49    21    22 ar  
    50    21    24 1   
    51    22    23 ar  
    52    22    55 1   
    53    23    56 1   
    54    24    25 1   
    55    24    57 1   
    56    25    26 1   
    57    25    27 2   
    58    25    28 2   
    59    26    58 1   
    60    26    59 1   
    61    26    60 1   
    62    29    61 1   
@<TRIPOS>SUBSTRUCTURE
     1 T88         1 TEMP              0 ****  ****    0 ROOT
