@<TRIPOS>MOLECULE
T8B
   67    71     1     0     0
SMALL
bcc


@<TRIPOS>ATOM
      1 O1          0.3630    1.1280   -0.2650 o         1 T8B     -0.834300
      2 C1          1.3590    0.9920   -1.0250 c         1 T8B      0.915600
      3 O2          1.7650    1.8760   -1.8340 o         1 T8B     -0.834300
      4 C2          2.0930   -0.3680   -0.9800 c3        1 T8B     -0.192100
      5 C3          3.5580   -0.3050   -0.7590 ca        1 T8B      0.032700
      6 C4          4.2560    0.8800   -0.7570 ca        1 T8B     -0.137000
      7 C5          5.6610    0.9190   -0.5370 ca        1 T8B      0.017000
      8 C6          6.3460    2.1490   -0.5460 ca        1 T8B     -0.123000
      9 C7          7.7180    2.2170   -0.3340 ca        1 T8B     -0.006000
     10 C8          8.4020    3.4760   -0.3670 ca        1 T8B     -0.113000
     11 C9          9.7500    3.5530   -0.1620 ca        1 T8B     -0.025800
     12 C10        10.4580    4.8130   -0.2000 cc        1 T8B     -0.089200
     13 C11        11.7920    4.8580    0.0090 cd        1 T8B      0.021900
     14 C12        12.5650    6.1110   -0.0190 c         1 T8B      0.651300
     15 O3         12.1250    7.2450   -0.2290 o         1 T8B     -0.543000
     16 O4         13.9010    5.9580    0.2170 os        1 T8B     -0.401900
     17 C13        14.6860    7.1520    0.1980 c3        1 T8B      0.123700
     18 O5         12.5760    3.7470    0.2710 os        1 T8B     -0.301200
     19 C14        11.9520    2.5060    0.3220 c         1 T8B      0.754200
     20 O6         12.7840    1.6230    0.5680 o         1 T8B     -0.625500
     21 C15        10.5240    2.3680    0.1040 ca        1 T8B     -0.312600
     22 C16         9.8820    1.1350    0.1470 ca        1 T8B      0.286100
     23 O7         10.5100   -0.0400    0.4150 oh        1 T8B     -0.476100
     24 C17         8.4590    1.0190   -0.0820 ca        1 T8B     -0.117000
     25 C18         7.7790   -0.2130   -0.0800 ca        1 T8B      0.186100
     26 O8          8.5160   -1.3800    0.0490 os        1 T8B     -0.339900
     27 C19         8.5820   -1.8700    1.3930 c3        1 T8B      0.131700
     28 C20         6.3860   -0.2900   -0.3140 ca        1 T8B     -0.087000
     29 C21         5.6410   -1.5160   -0.3440 ca        1 T8B      0.121100
     30 O9          6.3050   -2.7110   -0.0800 os        1 T8B     -0.345900
     31 C22         6.7580   -3.3720   -1.2630 c3        1 T8B      0.118700
     32 C23         4.2770   -1.5290   -0.5570 ca        1 T8B     -0.155600
     33 C24         3.5280   -2.8130   -0.5960 c         1 T8B      0.616900
     34 O10         3.1980   -3.4190    0.4370 o         1 T8B     -0.566100
     35 C25         3.2280   -3.3060   -1.9380 ce        1 T8B     -0.385200
     36 C26         2.5780   -4.4650   -2.2160 cf        1 T8B      0.251900
     37 O11         2.1240   -5.3630   -1.2960 oh        1 T8B     -0.493100
     38 C27         2.3210   -4.8960   -3.5980 ca        1 T8B     -0.101800
     39 C28         3.3290   -4.7720   -4.5620 ca        1 T8B     -0.067000
     40 C29         3.1060   -5.1570   -5.8820 ca        1 T8B     -0.175000
     41 C30         1.8650   -5.6710   -6.2600 ca        1 T8B     -0.078000
     42 C31         0.8460   -5.8030   -5.3240 ca        1 T8B     -0.227000
     43 C32         1.0710   -5.4180   -3.9910 ca        1 T8B      0.170100
     44 O12         0.0980   -5.5240   -3.0300 oh        1 T8B     -0.468100
     45 H2          1.9030   -0.8800   -1.9610 hc        1 T8B      0.055700
     46 H3          1.6280   -0.9910   -0.1690 hc        1 T8B      0.055700
     47 H4          3.7110    1.8270   -0.9530 ha        1 T8B      0.211000
     48 H5          5.7700    3.0710   -0.7290 ha        1 T8B      0.154000
     49 H6          7.8060    4.3810   -0.5670 ha        1 T8B      0.144000
     50 H7          9.8920    5.7360   -0.4030 ha        1 T8B      0.170000
     51 H8         15.7200    6.7860    0.4110 h1        1 T8B      0.050700
     52 H9         14.6200    7.6370   -0.8050 h1        1 T8B      0.050700
     53 H10        14.3290    7.8560    0.9880 h1        1 T8B      0.050700
     54 H11        11.4700    0.0960    0.5060 ho        1 T8B      0.457000
     55 H12         9.1420   -1.1460    2.0330 h1        1 T8B      0.043700
     56 H13         7.5550   -2.0520    1.7920 h1        1 T8B      0.043700
     57 H14         9.1460   -2.8300    1.2890 h1        1 T8B      0.043700
     58 H15         7.1980   -4.3270   -0.8810 h1        1 T8B      0.039033
     59 H16         5.8970   -3.5740   -1.9470 h1        1 T8B      0.039033
     60 H17         7.5360   -2.7530   -1.7720 h1        1 T8B      0.039033
     61 H18         3.5310   -2.6480   -2.7680 ha        1 T8B      0.158000
     62 H19         2.1800   -4.9720   -0.4050 ho        1 T8B      0.461000
     63 H20         4.3060   -4.3600   -4.2640 ha        1 T8B      0.144000
     64 H21         3.9080   -5.0490   -6.6260 ha        1 T8B      0.134000
     65 H22         1.6890   -5.9710   -7.3040 ha        1 T8B      0.129000
     66 H23        -0.1350   -6.2000   -5.6190 ha        1 T8B      0.132000
     67 H24        -0.7200   -5.8110   -3.4640 ho        1 T8B      0.416000
@<TRIPOS>BOND
     1    1    2 1   
     2    2    3 1   
     3    2    4 1   
     4    4    5 1   
     5    4   45 1   
     6    4   46 1   
     7    5    6 ar  
     8    5   32 ar  
     9    6    7 ar  
    10    6   47 1   
    11    7    8 ar  
    12    7   28 ar  
    13    8    9 ar  
    14    8   48 1   
    15    9   10 ar  
    16    9   24 ar  
    17   10   11 ar  
    18   10   49 1   
    19   11   12 1   
    20   11   21 ar  
    21   12   13 2   
    22   12   50 1   
    23   13   14 1   
    24   13   18 1   
    25   14   15 2   
    26   14   16 1   
    27   16   17 1   
    28   17   51 1   
    29   17   52 1   
    30   17   53 1   
    31   18   19 1   
    32   19   20 2   
    33   19   21 1   
    34   21   22 ar  
    35   22   23 1   
    36   22   24 ar  
    37   23   54 1   
    38   24   25 ar  
    39   25   26 1   
    40   25   28 ar  
    41   26   27 1   
    42   27   55 1   
    43   27   56 1   
    44   27   57 1   
    45   28   29 ar  
    46   29   30 1   
    47   29   32 ar  
    48   30   31 1   
    49   31   58 1   
    50   31   59 1   
    51   31   60 1   
    52   32   33 1   
    53   33   34 2   
    54   33   35 1   
    55   35   36 2   
    56   35   61 1   
    57   36   37 1   
    58   36   38 1   
    59   37   62 1   
    60   38   39 ar  
    61   38   43 ar  
    62   39   40 ar  
    63   39   63 1   
    64   40   41 ar  
    65   40   64 1   
    66   41   42 ar  
    67   41   65 1   
    68   42   43 ar  
    69   42   66 1   
    70   43   44 1   
    71   44   67 1   
@<TRIPOS>SUBSTRUCTURE
     1 T8B         1 TEMP              0 ****  ****    0 ROOT
