@<TRIPOS>MOLECULE
molecule
   67    71     1     0     0
SMALL
bcc


@<TRIPOS>ATOM
      1 O1           0.0000     0.0000     0.0000 o          1 T8B      -0.825300
      2 C1           1.3420     0.0000     0.0000 c          1 T8B       0.887600
      3 O2           1.9470     0.0000     1.0460 o          1 T8B      -0.825300
      4 C2           2.0950    -0.0000    -1.3060 c3         1 T8B      -0.170100
      5 C3           3.5770     0.0000    -1.0310 ca         1 T8B       0.044700
      6 C4           4.2380     1.1790    -0.9760 ca         1 T8B      -0.149000
      7 C5           5.6280     1.2020    -0.7160 ca         1 T8B       0.028000
      8 C6           6.3220     2.4080    -0.6610 ca         1 T8B      -0.133000
      9 C7           7.6960     2.4110    -0.4020 ca         1 T8B      -0.005000
     10 C8           8.3990     3.6330    -0.3490 ca         1 T8B      -0.093000
     11 C9           9.7510     3.6310    -0.0940 ca         1 T8B      -0.054800
     12 C10         10.5470     4.8620    -0.0180 cc         1 T8B      -0.088200
     13 C11         11.9010     4.7580    -0.0100 cd         1 T8B       0.028900
     14 C12         12.7040     5.9840     0.1000 c          1 T8B       0.660300
     15 O3          12.1550     7.0650     0.1830 o          1 T8B      -0.550000
     16 O4          14.0500     5.9080     0.1100 os         1 T8B      -0.406900
     17 C13         14.7800     7.1590     0.2230 c3         1 T8B       0.138700
     18 O5          12.5380     3.5680    -0.1010 os         1 T8B      -0.323200
     19 C14         11.9120     2.4640     0.3770 c          1 T8B       0.758200
     20 O6          12.5150     1.6030     0.9880 o          1 T8B      -0.554500
     21 C15         10.4680     2.3620     0.1200 ca         1 T8B      -0.270600
     22 C16          9.7970     1.1540     0.0740 ca         1 T8B       0.243100
     23 O7          10.4610    -0.0080     0.2760 oh         1 T8B      -0.495100
     24 C17          8.4070     1.1470    -0.1870 ca         1 T8B      -0.125000
     25 C18          7.7090    -0.0680    -0.2430 ca         1 T8B       0.187100
     26 O8           8.3620    -1.2380    -0.0430 os         1 T8B      -0.350900
     27 C19          8.4020    -1.7380     1.2950 c3         1 T8B       0.150700
     28 C20          6.3330    -0.0640    -0.5040 ca         1 T8B      -0.089000
     29 C21          5.6050    -1.2710    -0.5690 ca         1 T8B       0.150100
     30 O9           6.2270    -2.4590    -0.3800 os         1 T8B      -0.343900
     31 C22          6.7200    -3.1260    -1.5440 c3         1 T8B       0.141700
     32 C23          4.2370    -1.2260    -0.8320 ca         1 T8B      -0.112600
     33 C24          3.4700    -2.4830    -0.8950 c          1 T8B       0.551900
     34 O10          3.0170    -2.9730     0.1250 o          1 T8B      -0.506100
     35 C25          3.2600    -3.1190    -2.1370 ce         1 T8B      -0.569200
     36 C26          2.4740    -4.2300    -2.2090 cf         1 T8B       0.354900
     37 O11          1.8050    -4.6560    -1.1150 oh         1 T8B      -0.479100
     38 C27          2.3550    -4.9660    -3.4790 ca         1 T8B      -0.142800
     39 C28          3.5000    -5.4480    -4.1220 ca         1 T8B      -0.040000
     40 C29          3.3810    -6.1360    -5.3100 ca         1 T8B      -0.180000
     41 C30          2.1330    -6.3540    -5.8700 ca         1 T8B      -0.077000
     42 C31          0.9940    -5.8840    -5.2450 ca         1 T8B      -0.230000
     43 C32          1.0940    -5.1950    -4.0470 ca         1 T8B       0.169100
     44 O12         -0.0240    -4.7380    -3.4280 oh         1 T8B      -0.473100
     45 H2           1.8330     0.8840    -1.8750 hc         1 T8B       0.045700
     46 H3           1.8340    -0.8850    -1.8740 hc         1 T8B       0.045700
     47 H4           3.7010     2.1080    -1.1240 ha         1 T8B       0.145000
     48 H5           5.8010     3.3410    -0.8400 ha         1 T8B       0.141000
     49 H6           7.8590     4.5710    -0.4040 ha         1 T8B       0.141000
     50 H7          10.0740     5.7970     0.2560 ha         1 T8B       0.172000
     51 H8          14.5030     7.6570     1.1440 h1         1 T8B       0.047700
     52 H9          15.8440     6.9570     0.2270 h1         1 T8B       0.047700
     53 H10         14.5360     7.7960    -0.6190 h1         1 T8B       0.047700
     54 H11         10.9860    -0.2060    -0.4830 ho         1 T8B       0.434000
     55 H12          7.4540    -1.5450     1.7820 h1         1 T8B       0.041367
     56 H13          8.5870    -2.8050     1.2770 h1         1 T8B       0.041367
     57 H14          9.1960    -1.2440     1.8420 h1         1 T8B       0.041367
     58 H15          6.3660    -4.1500    -1.5500 h1         1 T8B       0.034367
     59 H16          7.8030    -3.1190    -1.5330 h1         1 T8B       0.034367
     60 H17          6.3640    -2.6150    -2.4310 h1         1 T8B       0.034367
     61 H18          2.5470    -2.4140    -1.7280 ha         1 T8B       0.290000
     62 H19          2.1130    -5.5130    -0.8710 ho         1 T8B       0.423000
     63 H20          4.4780    -5.2800    -3.6880 ha         1 T8B       0.152000
     64 H21          4.2680    -6.5090    -5.8080 ha         1 T8B       0.131000
     65 H22          2.0500    -6.8940    -6.8050 ha         1 T8B       0.126000
     66 H23          0.0220    -6.0610    -5.6880 ha         1 T8B       0.132000
     67 H24         -0.7660    -5.2540    -3.6970 ho         1 T8B       0.422000
@<TRIPOS>BOND
     1    17    16 1
     2    16    14 1
     3    15    14 2
     4    14    13 1
     5    13    18 1
     6    13    12 2
     7    18    19 1
     8    12    11 1
     9    19    20 2
    10    19    21 1
    11    11    21 ar
    12    11    10 ar
    13    21    22 ar
    14    10     9 ar
    15    22    23 1
    16    22    24 ar
    17     9    24 ar
    18     9     8 ar
    19    24    25 ar
    20     8     7 ar
    21    25    26 1
    22    25    28 ar
    23    26    27 1
    24     7    28 ar
    25     7     6 ar
    26    28    29 ar
    27     6     5 ar
    28    29    30 1
    29    29    32 ar
    30    30    31 1
    31     5    32 ar
    32     5     4 1
    33    32    33 1
    34     3     2 1
    35     4     2 1
    36    34    33 2
    37     2     1 1
    38    33    35 1
    39    35    36 2
    40    36    37 1
    41    36    38 1
    42    44    43 1
    43    38    43 ar
    44    38    39 ar
    45    43    42 ar
    46    39    40 ar
    47    42    41 ar
    48    40    41 ar
    49     4    45 1
    50     4    46 1
    51     6    47 1
    52     8    48 1
    53    10    49 1
    54    12    50 1
    55    17    51 1
    56    17    52 1
    57    17    53 1
    58    23    54 1
    59    27    55 1
    60    27    56 1
    61    27    57 1
    62    31    58 1
    63    31    59 1
    64    31    60 1
    65    35    61 1
    66    37    62 1
    67    39    63 1
    68    40    64 1
    69    41    65 1
    70    42    66 1
    71    44    67 1
@<TRIPOS>SUBSTRUCTURE
     1 T8B         1 TEMP              0 ****  ****    0 ROOT
