@<TRIPOS>MOLECULE
molecule
   52    53     1     0     0
SMALL
bcc


@<TRIPOS>ATOM
      1 C18          0.0000     0.0000     0.0000 c3         1 T8G      -0.121100
      2 C10          2.5990    -3.8680     1.4810 ce         1 T8G       0.402300
      3 C11          3.3250    -4.3280     2.6890 c          1 T8G       0.803300
      4 C12          1.8770    -3.7670    -0.8140 c3         1 T8G      -0.121700
      5 N1           2.2250    -2.6670     1.2810 n2         1 T8G      -0.539900
      6 C13          3.0920    -3.5310    -1.7140 c3         1 T8G      -0.098100
      7 C14          1.5310    -2.4990    -0.0010 c3         1 T8G       0.107500
      8 C15          2.0410    -1.2490    -0.7220 c3         1 T8G      -0.171700
      9 S1           3.5970    -5.8310    -0.1490 ss         1 T8G      -0.172200
     10 C1           3.8510    -8.0250    -1.7310 c          1 T8G       0.643100
     11 O1           4.9670    -7.9960    -1.2680 o          1 T8G      -0.520000
     12 C16          3.5480    -1.2480    -0.7210 c          1 T8G       0.602900
     13 C17          1.5300     0.0000     0.0000 c3         1 T8G       0.158100
     14 O2           3.5120    -8.9870    -2.6030 os         1 T8G      -0.436900
     15 C2           4.5350    -9.9590    -2.9440 c3         1 T8G       0.152100
     16 O3           3.7270    -3.4370     3.6140 o          1 T8G      -0.799800
     17 C3           3.8770   -11.2980    -3.2790 c3         1 T8G      -0.088400
     18 O4           3.5580    -5.5100     2.8420 o          1 T8G      -0.799800
     19 C4           4.9550   -12.3220    -3.6390 c3         1 T8G      -0.077400
     20 O5           4.1510    -1.1230    -1.7600 o          1 T8G      -0.577100
     21 C5           5.7460   -11.8260    -4.8510 c3         1 T8G      -0.084400
     22 O6           2.0060     0.0000     1.3470 oh         1 T8G      -0.549800
     23 C6           6.4050   -10.4850    -4.5160 c3         1 T8G      -0.077400
     24 C7           5.3270    -9.4620    -4.1560 c3         1 T8G      -0.088400
     25 C8           2.8410    -6.9820    -1.3290 c3         1 T8G      -0.082300
     26 C9           2.2100    -4.7610     0.3240 c3         1 T8G      -0.090900
     27 H1          -0.3610    -0.4920    -0.8950 hc         1 T8G       0.038367
     28 H2          -0.3610     1.0210     0.0210 hc         1 T8G       0.038367
     29 H3          -0.3610    -0.5290     0.8740 hc         1 T8G       0.038367
     30 H4           1.0210    -4.1060    -1.3850 hc         1 T8G       0.040700
     31 H5           2.8860    -2.7110    -2.3910 hc         1 T8G       0.047700
     32 H6           3.9530    -3.2880    -1.1030 hc         1 T8G       0.047700
     33 H7           3.2980    -4.4280    -2.2860 hc         1 T8G       0.047700
     34 H8           0.4610    -2.4380     0.1590 h1         1 T8G       0.061700
     35 H9           1.6800    -1.2490    -1.7430 hc         1 T8G       0.062700
     36 H10          4.0890    -1.2960     0.2160 h4         1 T8G       0.048200
     37 H11          1.8920     0.8850    -0.5100 h1         1 T8G       0.015700
     38 H12          5.2080   -10.0900    -2.1060 h1         1 T8G       0.075700
     39 H14          3.2080   -11.1690    -4.1220 hc         1 T8G       0.051950
     40 H15          3.3190   -11.6500    -2.4200 hc         1 T8G       0.051950
     41 H16          5.6270   -12.4470    -2.7980 hc         1 T8G       0.043200
     42 H17          4.4870   -13.2690    -3.8780 hc         1 T8G       0.043200
     43 H18          5.0740   -11.6960    -5.6910 hc         1 T8G       0.037700
     44 H19          6.5110   -12.5500    -5.1030 hc         1 T8G       0.037700
     45 H20          2.1190     0.8890     1.6400 ho         1 T8G       0.382000
     46 H21          7.0740   -10.6140    -3.6730 hc         1 T8G       0.043200
     47 H22          6.9630   -10.1340    -5.3750 hc         1 T8G       0.043200
     48 H23          4.6550    -9.3360    -4.9970 hc         1 T8G       0.051950
     49 H24          5.7950    -8.5150    -3.9160 hc         1 T8G       0.051950
     50 H25          2.5160    -6.4370    -2.2070 h1         1 T8G       0.073200
     51 H26          1.9880    -7.4640    -0.8680 h1         1 T8G       0.073200
     52 H27          1.3370    -5.3500     0.5790 h1         1 T8G       0.074700
@<TRIPOS>BOND
     1    21    19 1
     2    21    23 1
     3    19    17 1
     4    23    24 1
     5    17    15 1
     6    24    15 1
     7    15    14 1
     8    18     3 1
     9    14    10 1
    10    16     3 1
    11     3     2 1
    12    11    10 2
    13    10    25 1
    14     9    25 1
    15     9    26 1
    16     2    26 1
    17     2     5 2
    18    26     4 1
    19     5     7 1
    20     4     7 1
    21     4     6 1
    22    20    12 2
    23     7     8 1
    24    12     8 1
    25     8    13 1
    26    13     1 1
    27    13    22 1
    28     1    27 1
    29     1    28 1
    30     1    29 1
    31     4    30 1
    32     6    31 1
    33     6    32 1
    34     6    33 1
    35     7    34 1
    36     8    35 1
    37    12    36 1
    38    13    37 1
    39    15    38 1
    40    17    39 1
    41    17    40 1
    42    19    41 1
    43    19    42 1
    44    21    43 1
    45    21    44 1
    46    22    45 1
    47    23    46 1
    48    23    47 1
    49    24    48 1
    50    24    49 1
    51    25    50 1
    52    25    51 1
    53    26    52 1
@<TRIPOS>SUBSTRUCTURE
     1 T8G         1 TEMP              0 ****  ****    0 ROOT
