@<TRIPOS>MOLECULE
T8N
   19    18     1     0     0
SMALL
bcc


@<TRIPOS>ATOM
      1 OG1        -0.2450    0.3100    0.4380 o         1 T8N     -0.570000
      2 CGC         0.9360    0.1210    0.1460 c         1 T8N      0.678100
      3 OG2         1.7470   -0.2480    1.2210 os        1 T8N     -0.479900
      4 C16         1.1120   -0.4170    2.4740 c3        1 T8N      0.140700
      5 CG          1.7390    0.2500   -1.1060 c3        1 T8N     -0.081200
      6 CB          0.9450    0.1290   -2.3580 ce        1 T8N     -0.187400
      7 C2C         0.5930   -1.2890   -2.7670 c         1 T8N      0.897800
      8 OB2         1.1720   -2.2550   -2.1740 o         1 T8N     -0.871300
      9 OB1        -0.2430   -1.4900   -3.6990 o         1 T8N     -0.871300
     10 CA          0.6510    1.1780   -3.1390 cf        1 T8N     -0.179200
     11 C1C         1.0030    2.6270   -2.9490 c         1 T8N      0.888800
     12 OA1         1.9880    2.9810   -2.2240 o         1 T8N     -0.874800
     13 OA2         0.3100    3.4920   -3.5710 o         1 T8N     -0.874800
     14 H16         0.6710    0.5500    2.8200 h1        1 T8N      0.018700
     15 H16A        1.9280   -0.7510    3.1620 h1        1 T8N      0.018700
     16 H16B        0.3070   -1.1890    2.4040 h1        1 T8N      0.018700
     17 HG          2.5170   -0.5640   -1.0980 hc        1 T8N      0.102200
     18 HGA         2.2490    1.2580   -1.0640 hc        1 T8N      0.102200
     19 HA          0.0730    0.9890   -4.0620 ha        1 T8N      0.123000
@<TRIPOS>BOND
     1    1    2 2   
     2    2    3 1   
     3    2    5 1   
     4    3    4 1   
     5    4   14 1   
     6    4   15 1   
     7    4   16 1   
     8    5    6 1   
     9    5   17 1   
    10    5   18 1   
    11    6    7 1   
    12    6   10 2   
    13    7    8 1   
    14    7    9 1   
    15   10   11 1   
    16   10   19 1   
    17   11   12 1   
    18   11   13 1   
@<TRIPOS>SUBSTRUCTURE
     1 T8N         1 TEMP              0 ****  ****    0 ROOT
