@<TRIPOS>MOLECULE
molecule
   19    18     1     0     0
SMALL
bcc


@<TRIPOS>ATOM
      1 OG1          0.0000     0.0000     0.0000 o          1 T8N      -0.546000
      2 CGC          1.2080     0.0000     0.0000 c          1 T8N       0.675100
      3 OG2          1.8790     0.0000     1.1630 os         1 T8N      -0.455900
      4 C16          1.0890    -0.0020     2.3800 c3         1 T8N       0.142700
      5 CG           1.9620    -0.0040    -1.3060 c3         1 T8N      -0.129200
      6 CB           0.9840    -0.0090    -2.4500 ce         1 T8N       0.028600
      7 C2C          0.4740    -1.2890    -2.9810 c          1 T8N       0.879800
      8 OB2          0.8850    -2.4530    -2.4410 o          1 T8N      -0.850300
      9 OB1         -0.3150    -1.2930    -3.9040 o          1 T8N      -0.850300
     10 CA           0.5740     1.1510    -2.9890 cf         1 T8N      -0.475200
     11 C1C          0.9160     2.4290    -2.3350 c          1 T8N       0.843800
     12 OA1          1.4710     2.4290    -1.2550 o          1 T8N      -0.877800
     13 OA2          0.6120     3.5960    -2.9370 o          1 T8N      -0.877800
     14 H16          0.5120    -0.9170     2.4350 h1         1 T8N       0.023033
     15 H16A         0.4170     0.8480     2.3760 h1         1 T8N       0.023033
     16 H16B         1.7470     0.0620     3.2380 h1         1 T8N       0.023033
     17 HG           2.5840     0.8810    -1.3660 hc         1 T8N       0.077200
     18 HGA          2.5850    -0.8880    -1.3600 hc         1 T8N       0.077200
     19 HA           1.5240     1.6300    -3.1930 ha         1 T8N       0.270000
@<TRIPOS>BOND
     1     1     2 2
     2     2     5 1
     3     2     3 1
     4     4     3 1
     5     4    14 1
     6     4    15 1
     7     4    16 1
     8     5     6 1
     9     5    17 1
    10     5    18 1
    11     6    10 2
    12     6     7 1
    13     9     7 1
    14     7     8 1
    15    11    10 1
    16    10    19 1
    17    12    11 1
    18    11    13 1
@<TRIPOS>SUBSTRUCTURE
     1 T8N         1 TEMP              0 ****  ****    0 ROOT
