@<TRIPOS>MOLECULE
molecule
   45    47     1     0     0
SMALL
bcc


@<TRIPOS>ATOM
      1 N1           0.0000     0.0000     0.0000 nc         1 T8T      -0.785100
      2 C2           1.3160     0.0000     0.0000 cd         1 T8T       0.726100
      3 N2           1.9750     0.0020    -1.2000 nz         1 T8T      -0.803600
      4 N3           2.0460     0.0000     1.1470 na         1 T8T      -0.691600
      5 C4           1.4240    -0.0010     2.3680 cd         1 T8T      -0.017000
      6 C5           0.0360    -0.0020     2.4160 cc         1 T8T       0.205800
      7 C6          -0.6980    -0.0020     1.1460 c          1 T8T       0.650000
      8 O6          -1.9200    -0.0020     1.1320 o          1 T8T      -0.569100
      9 N7          -0.3250    -0.0030     3.7190 nc         1 T8T      -0.637000
     10 C8           0.7460    -0.0020     4.4590 cd         1 T8T       0.415400
     11 N9           1.8520    -0.0010     3.6610 na         1 T8T      -0.213900
     12 PA           4.4330    -1.6790     9.6150 p5         1 T8T       1.510500
     13 PB           5.1010    -4.2140    10.9960 p5         1 T8T       1.437800
     14 PG           5.0910    -7.1770    11.0890 p5         1 T8T       1.284900
     15 C1'          3.2450    -0.0000     4.1110 c3         1 T8T       0.250800
     16 S1A          2.4300    -1.5320    10.2960 sh         1 T8T      -0.622200
     17 O1B          6.3950    -3.8010    11.8590 o          1 T8T      -0.800500
     18 O1G          5.0510    -8.2810     9.9170 o          1 T8T      -0.599167
     19 C2'          3.7830     1.4440     4.1540 c3         1 T8T      -0.162400
     20 O2A          5.2960    -0.7950    10.4300 o          1 T8T      -0.780300
     21 O2B          3.8960    -4.1470    11.8510 o          1 T8T      -0.800500
     22 O2G          6.3190    -7.4920    12.0800 o          1 T8T      -0.599167
     23 C3'          4.2150     1.6450     5.6250 c3         1 T8T       0.110100
     24 O3'          5.4500     2.3620     5.7010 oh         1 T8T      -0.591800
     25 O3A          4.9380    -3.2010     9.7560 os         1 T8T      -0.652800
     26 O3B          5.2830    -5.7150    10.4420 os         1 T8T      -0.706800
     27 O3G          3.8210    -7.2180    11.8480 o          1 T8T      -0.599167
     28 C4'          4.3920     0.1850     6.1140 c3         1 T8T       0.137100
     29 O4'          3.3280    -0.5260     5.4470 os         1 T8T      -0.379600
     30 C5'          4.2270     0.1020     7.6330 c3         1 T8T       0.217400
     31 O5'          4.5090    -1.2290     8.0710 os         1 T8T      -0.563200
     32 HN2          2.5420     0.8240    -1.2680 hn         1 T8T       0.312133
     33 HN2A         2.5570    -0.8110    -1.2620 hn         1 T8T       0.312133
     34 HN3          3.0450    -0.0000     1.0980 hn         1 T8T       0.396800
     35 H8           0.7570    -0.0030     5.5420 h5         1 T8T       0.084100
     36 H1'          3.8540    -0.5990     3.4440 h2         1 T8T       0.066700
     37 HS1A         2.3850    -0.7590    11.3740 hs         1 T8T       0.357800
     38 H2'          4.6340     1.5500     3.4920 hc         1 T8T       0.067700
     39 H2'A         3.0000     2.1450     3.8910 hc         1 T8T       0.067700
     40 H3'          3.4360     2.1460     6.1880 h1         1 T8T       0.055700
     41 HO3'         5.2750     3.2720     5.8740 ho         1 T8T       0.404000
     42 H4'          5.3560    -0.2020     5.8080 h1         1 T8T       0.087700
     43 H5'          3.2100     0.3620     7.9010 h1         1 T8T       0.052200
     44 H5'A         4.9130     0.7920     8.1100 h1         1 T8T       0.052200
     45 H23          1.3090    -0.0150    -1.9470 hn         1 T8T       0.312133
@<TRIPOS>BOND
     1     1     2 2
     2     1     7 1
     3     3     2 1
     4     2     4 1
     5     3    32 1
     6     3    33 1
     7     4     5 1
     8     4    34 1
     9     6     5 2
    10     5    11 1
    11     7     6 1
    12     6     9 1
    13     8     7 2
    14     9    10 2
    15    11    10 1
    16    10    35 1
    17    11    15 1
    18    16    12 1
    19    12    31 1
    20    12    20 2
    21    12    25 1
    22    26    13 1
    23    25    13 1
    24    13    17 1
    25    13    21 1
    26    27    14 1
    27    26    14 1
    28    14    18 1
    29    14    22 1
    30    29    15 1
    31    15    19 1
    32    15    36 1
    33    16    37 1
    34    19    23 1
    35    19    38 1
    36    19    39 1
    37    28    23 1
    38    23    24 1
    39    23    40 1
    40    24    41 1
    41    29    28 1
    42    28    30 1
    43    28    42 1
    44    30    31 1
    45    30    43 1
    46    30    44 1
    47    45     3 1
@<TRIPOS>SUBSTRUCTURE
     1 T8T         1 TEMP              0 ****  ****    0 ROOT
