@<TRIPOS>MOLECULE
molecule
   58    61     1     0     0
SMALL
bcc


@<TRIPOS>ATOM
      1 C01          0.0000     0.0000     0.0000 c3         1 T92       0.152100
      2 N02          1.4700     0.0000     0.0000 n3         1 T92      -0.734600
      3 C03          1.9950     0.0000     1.3720 c3         1 T92       0.160300
      4 C04          3.5230     0.0810     1.3300 c3         1 T92       0.164800
      5 C05          1.9960    -1.1410    -0.7630 c3         1 T92       0.160300
      6 C06          3.5240    -1.0600    -0.8050 c3         1 T92       0.164800
      7 N07          4.0500    -1.0600     0.5670 nh         1 T92      -0.598000
      8 C08          5.4500    -1.0600     0.5680 ca         1 T92       0.089600
      9 C09          6.1430    -2.0600    -0.1010 ca         1 T92      -0.150000
     10 C10          7.5250    -2.0610    -0.1010 ca         1 T92      -0.119000
     11 C11          6.1440    -0.0580     1.2320 ca         1 T92      -0.150000
     12 C12          7.5250    -0.0580     1.2320 ca         1 T92      -0.119000
     13 C13          8.2200    -1.0610     0.5680 ca         1 T92       0.128600
     14 N14          9.6200    -1.0620     0.5690 nu         1 T92      -0.746300
     15 C15         10.3130    -0.5920     1.6730 ca         1 T92       0.971900
     16 N16          9.6370    -0.2400     2.7570 nb         1 T92      -0.811000
     17 C17         10.2640     0.2130     3.8330 ca         1 T92       0.537200
     18 C18         11.6420     0.3170     3.8190 ca         1 T92      -0.341200
     19 Cl19        12.5030     0.9050     5.2080 cl         1 T92      -0.103400
     20 C20         12.3270    -0.0620     2.6610 ca         1 T92       0.772200
     21 N21         13.7090     0.0250     2.6010 nu         1 T92      -0.748300
     22 C22         14.3760    -0.2380     1.3990 ca         1 T92       0.157600
     23 C23         13.6990    -0.1370     0.1920 ca         1 T92      -0.137000
     24 C24         14.3590    -0.3980    -0.9940 ca         1 T92      -0.109000
     25 C25         15.6940    -0.7600    -0.9810 ca         1 T92      -0.143000
     26 C26         16.3750    -0.8630     0.2180 ca         1 T92      -0.103000
     27 C27         15.7210    -0.5970     1.4110 ca         1 T92       0.063100
     28 O28         16.3900    -0.6980     2.5910 os         1 T92      -0.342200
     29 C29         16.2520    -1.8510     3.2750 c          1 T92       0.624300
     30 C30         16.8520    -1.9890     4.6100 ce         1 T92      -0.223200
     31 C31         16.7160    -3.1270     5.2860 c2         1 T92      -0.122000
     32 O32         15.6340    -2.7770     2.7890 o          1 T92      -0.522000
     33 N33         11.6340    -0.5120     1.6200 nb         1 T92      -0.844000
     34 H1          -0.3610     0.0330    -1.0210 h1         1 T92       0.032700
     35 H2          -0.3610    -0.9010     0.4810 h1         1 T92       0.032700
     36 H3          -0.3610     0.8670     0.5390 h1         1 T92       0.032700
     37 H5           1.6040     0.8570     1.9080 h1         1 T92       0.042450
     38 H6           1.6960    -0.9130     1.8720 h1         1 T92       0.042450
     39 H7           3.8220     1.0040     0.8490 h1         1 T92       0.049200
     40 H8           3.9140     0.0500     2.3400 h1         1 T92       0.049200
     41 H9           1.6970    -2.0640    -0.2820 h1         1 T92       0.042450
     42 H10          1.6060    -1.1100    -1.7730 h1         1 T92       0.042450
     43 H11          3.8230    -0.1470    -1.3050 h1         1 T92       0.049200
     44 H12          3.9150    -1.9160    -1.3410 h1         1 T92       0.049200
     45 H13          5.6010    -2.8390    -0.6230 ha         1 T92       0.139000
     46 H14          8.0660    -2.8420    -0.6210 ha         1 T92       0.145000
     47 H15          5.6020     0.7240     1.7490 ha         1 T92       0.139000
     48 H16          8.0670     0.7230     1.7510 ha         1 T92       0.145000
     49 H17         10.1210    -1.4010    -0.2290 hn         1 T92       0.466800
     50 H18          9.7030     0.4980     4.7140 h4         1 T92       0.042100
     51 H19         14.2270     0.3100     3.4080 hn         1 T92       0.475800
     52 H20         12.6540     0.1460     0.1790 ha         1 T92       0.179000
     53 H21         13.8300    -0.3190    -1.9350 ha         1 T92       0.133000
     54 H22         16.2070    -0.9660    -1.9130 ha         1 T92       0.134000
     55 H23         17.4210    -1.1450     0.2250 ha         1 T92       0.143000
     56 H24         17.4050    -1.1640     5.0440 ha         1 T92       0.143000
     57 H26         17.1580    -3.2290     6.2700 ha         1 T92       0.134500
     58 H27         16.1640    -3.9520     4.8530 ha         1 T92       0.134500
@<TRIPOS>BOND
     1     2     1 1
     2     2     5 1
     3     2     3 1
     4     5     6 1
     5     3     4 1
     6     6     7 1
     7     4     7 1
     8     7     8 1
     9    32    29 2
    10     8     9 ar
    11     8    11 ar
    12     9    10 ar
    13    25    26 ar
    14    25    24 ar
    15    26    27 ar
    16    29    30 1
    17    29    28 1
    18    31    30 2
    19    11    12 ar
    20    10    13 ar
    21    24    23 ar
    22    27    28 1
    23    27    22 ar
    24    12    13 ar
    25    13    14 1
    26    23    22 ar
    27    22    21 1
    28    14    15 1
    29    33    15 ar
    30    33    20 ar
    31    15    16 ar
    32    21    20 1
    33    20    18 ar
    34    16    17 ar
    35    18    17 ar
    36    18    19 1
    37     1    34 1
    38     1    35 1
    39     1    36 1
    40     3    37 1
    41     3    38 1
    42     4    39 1
    43     4    40 1
    44     5    41 1
    45     5    42 1
    46     6    43 1
    47     6    44 1
    48     9    45 1
    49    10    46 1
    50    11    47 1
    51    12    48 1
    52    14    49 1
    53    17    50 1
    54    21    51 1
    55    23    52 1
    56    24    53 1
    57    25    54 1
    58    26    55 1
    59    30    56 1
    60    31    57 1
    61    31    58 1
@<TRIPOS>SUBSTRUCTURE
     1 T92         1 TEMP              0 ****  ****    0 ROOT
