@<TRIPOS>MOLECULE
T92
   58    61     1     0     0
SMALL
bcc


@<TRIPOS>ATOM
      1 C01          0.0000     0.0000     0.0000 c3         1 T92       0.189100
      2 N02          1.4700     0.0000     0.0000 n3         1 T92      -0.549600
      3 C03          1.9950     0.0000     1.3720 c3         1 T92       0.153300
      4 C04          3.5230     0.0810     1.3300 c3         1 T92       0.136300
      5 C05          1.9960    -1.1410    -0.7630 c3         1 T92       0.153300
      6 C06          3.5240    -1.0600    -0.8050 c3         1 T92       0.136300
      7 N07          4.0500    -1.0600     0.5670 nh         1 T92      -0.365000
      8 C08          5.4500    -1.0600     0.5680 ca         1 T92       0.010600
      9 C09          6.1430    -2.0600    -0.1010 ca         1 T92      -0.129000
     10 C10          7.5250    -2.0610    -0.1010 ca         1 T92      -0.091000
     11 C11          6.1440    -0.0580     1.2320 ca         1 T92      -0.129000
     12 C12          7.5250    -0.0580     1.2320 ca         1 T92      -0.091000
     13 C13          8.2200    -1.0610     0.5680 ca         1 T92      -0.032400
     14 N14          9.6200    -1.0620     0.5690 nu         1 T92      -0.273300
     15 C15         10.3130    -0.5920     1.6730 ca         1 T92       0.738900
     16 N16          9.6370    -0.2400     2.7570 nb         1 T92      -0.724000
     17 C17         10.2640     0.2130     3.8330 ca         1 T92       0.535200
     18 C18         11.6420     0.3170     3.8190 ca         1 T92      -0.422200
     19 Cl19        12.5030     0.9050     5.2080 cl         1 T92      -0.005400
     20 C20         12.3270    -0.0620     2.6610 ca         1 T92       0.575200
     21 N21         13.7090     0.0250     2.6010 nu         1 T92      -0.280300
     22 C22         14.3760    -0.2380     1.3990 ca         1 T92      -0.005400
     23 C23         13.6990    -0.1370     0.1920 ca         1 T92      -0.127000
     24 C24         14.3590    -0.3980    -0.9940 ca         1 T92      -0.079000
     25 C25         15.6940    -0.7600    -0.9810 ca         1 T92      -0.110000
     26 C26         16.3750    -0.8630     0.2180 ca         1 T92      -0.083000
     27 C27         15.7210    -0.5970     1.4110 ca         1 T92       0.076100
     28 O28         16.3900    -0.6980     2.5910 os         1 T92      -0.319200
     29 C29         16.2520    -1.8510     3.2750 c          1 T92       0.684300
     30 C30         16.8520    -1.9890     4.6100 ce         1 T92      -0.219200
     31 C31         16.7160    -3.1270     5.2860 c2         1 T92      -0.048000
     32 O32         15.6340    -2.7770     2.7890 o          1 T92      -0.562000
     33 N33         11.6340    -0.5120     1.6200 nb         1 T92      -0.741000
     34 H1          -0.3610     0.8680     0.5390 h1         1 T92       0.000700
     35 H2          -0.3610    -0.9000     0.4820 h1         1 T92       0.000700
     36 H3          -0.3610     0.0330    -1.0210 h1         1 T92       0.000700
     37 H5           1.6040     0.8570     1.9080 h1         1 T92       0.014700
     38 H6           1.6960    -0.9130     1.8720 h1         1 T92       0.014700
     39 H7           3.8220     1.0040     0.8490 h1         1 T92       0.023950
     40 H8           3.9140     0.0500     2.3400 h1         1 T92       0.023950
     41 H9           1.6970    -2.0640    -0.2820 h1         1 T92       0.014700
     42 H10          1.6060    -1.1100    -1.7730 h1         1 T92       0.014700
     43 H11          3.8230    -0.1470    -1.3050 h1         1 T92       0.023950
     44 H12          3.9150    -1.9160    -1.3410 h1         1 T92       0.023950
     45 H13          5.6010    -2.8390    -0.6230 ha         1 T92       0.118500
     46 H14          8.0660    -2.8420    -0.6210 ha         1 T92       0.120000
     47 H15          5.6020     0.7240     1.7490 ha         1 T92       0.118500
     48 H16          8.0670     0.7230     1.7510 ha         1 T92       0.120000
     49 H17         10.1210    -1.4010    -0.2290 hn         1 T92       0.292800
     50 H18          9.7030     0.4980     4.7140 h4         1 T92      -0.011900
     51 H19         14.2270     0.3100     3.4080 hn         1 T92       0.299800
     52 H20         12.6540     0.1460     0.1790 ha         1 T92       0.158000
     53 H21         13.8300    -0.3190    -1.9350 ha         1 T92       0.102000
     54 H22         16.2070    -0.9660    -1.9130 ha         1 T92       0.105000
     55 H23         17.4210    -1.1450     0.2250 ha         1 T92       0.112000
     56 H24         17.4050    -1.1640     5.0440 ha         1 T92       0.117000
     57 H26         16.1640    -3.9520     4.8530 ha         1 T92       0.094500
     58 H27         17.1580    -3.2290     6.2700 ha         1 T92       0.094500
@<TRIPOS>BOND
     1     1     2 1   
     2     1    34 1   
     3     1    35 1   
     4     1    36 1   
     5     2     3 1   
     6     2     5 1   
     7     3     4 1   
     8     3    37 1   
     9     3    38 1   
    10     4     7 1   
    11     4    39 1   
    12     4    40 1   
    13     5     6 1   
    14     5    41 1   
    15     5    42 1   
    16     6     7 1   
    17     6    43 1   
    18     6    44 1   
    19     7     8 1   
    20     8     9 ar  
    21     8    11 ar  
    22     9    10 ar  
    23     9    45 1   
    24    10    13 ar  
    25    10    46 1   
    26    11    12 ar  
    27    11    47 1   
    28    12    13 ar  
    29    12    48 1   
    30    13    14 1   
    31    14    15 1   
    32    14    49 1   
    33    15    16 ar  
    34    15    33 ar  
    35    16    17 ar  
    36    17    18 ar  
    37    17    50 1   
    38    18    19 1   
    39    18    20 ar  
    40    20    21 1   
    41    20    33 ar  
    42    21    22 1   
    43    21    51 1   
    44    22    23 ar  
    45    22    27 ar  
    46    23    24 ar  
    47    23    52 1   
    48    24    25 ar  
    49    24    53 1   
    50    25    26 ar  
    51    25    54 1   
    52    26    27 ar  
    53    26    55 1   
    54    27    28 1   
    55    28    29 1   
    56    29    30 1   
    57    29    32 2   
    58    30    31 2   
    59    30    56 1   
    60    31    57 1   
    61    31    58 1   
@<TRIPOS>SUBSTRUCTURE
     1 T92         1 TEMP              0 ****  ****    0 ROOT
