@<TRIPOS>MOLECULE
molecule
   41    41     1     0     0
SMALL
bcc


@<TRIPOS>ATOM
      1 O1           0.0000     0.0000     0.0000 o          1 T93      -0.922667
      2 P2           1.4800     0.0000     0.0000 p5         1 T93       1.075700
      3 O3           2.0170     0.0000     1.5170 o          1 T93      -0.922667
      4 O4           2.0160    -1.3140    -0.7600 o          1 T93      -0.922667
      5 C5           2.0870     1.4880    -0.8600 c3         1 T93      -0.090900
      6 P6           1.4780     1.4880    -2.5790 p5         1 T93       1.075700
      7 O7           2.0150     0.1740    -3.3380 o          1 T93      -0.922667
      8 O8          -0.1320     1.4880    -2.5780 o          1 T93      -0.922667
      9 O9           1.9710     2.6970    -3.2770 o          1 T93      -0.922667
     10 N10          1.5990     2.6850    -0.1700 nu         1 T93      -0.667900
     11 C11          2.1690     3.9240    -0.4380 ca         1 T93       0.674200
     12 N12          1.7230     5.0020     0.1910 nb         1 T93      -0.854000
     13 C13          2.2350     6.1980    -0.0320 ca         1 T93       0.455200
     14 C14          3.2620     6.3720    -0.9350 ca         1 T93      -0.524300
     15 C15          3.7630     5.2640    -1.6190 ca         1 T93       0.100100
     16 O16          4.7740     5.4000    -2.5150 os         1 T93      -0.316900
     17 C17          5.2900     6.7170    -2.7170 c3         1 T93       0.157400
     18 C18          6.4150     6.6700    -3.7530 c3         1 T93      -0.086400
     19 C19          6.9670     8.0810    -3.9690 c3         1 T93      -0.081400
     20 C20          8.0920     8.0350    -5.0050 c3         1 T93      -0.081400
     21 C21          8.6440     9.4450    -5.2210 c3         1 T93      -0.085400
     22 C22          9.7690     9.3990    -6.2580 c3         1 T93      -0.092100
     23 C23          3.2060     4.0180    -1.3570 ca         1 T93      -0.197300
     24 H051         3.1700     1.4880    -0.8600 h1         1 T93       0.034700
     25 H101         0.8650     2.6080     0.5060 hn         1 T93       0.447800
     26 H131         1.8430     7.0550     0.5020 h4         1 T93      -0.067900
     27 H141         3.6750     7.3580    -1.1110 ha         1 T93       0.053000
     28 H171         4.4980     7.3640    -3.0730 h1         1 T93       0.009700
     29 H172         5.6780     7.1000    -1.7810 h1         1 T93       0.009700
     30 H182         6.0270     6.2870    -4.6900 hc         1 T93       0.051700
     31 H181         7.2070     6.0220    -3.3980 hc         1 T93       0.051700
     32 H192         7.3540     8.4640    -3.0320 hc         1 T93       0.031200
     33 H191         6.1750     8.7280    -4.3240 hc         1 T93       0.031200
     34 H202         7.7050     7.6510    -5.9410 hc         1 T93       0.041200
     35 H201         8.8840     7.3870    -4.6500 hc         1 T93       0.041200
     36 H212         7.8520    10.0930    -5.5770 hc         1 T93       0.033200
     37 H211         9.0320     9.8290    -4.2850 hc         1 T93       0.033200
     38 H223         9.3820     9.0160    -7.1940 hc         1 T93       0.021700
     39 H221        10.1610    10.3980    -6.4110 hc         1 T93       0.021700
     40 H222        10.5620     8.7510    -5.9030 hc         1 T93       0.021700
     41 H231         3.5690     3.1350    -1.8690 ha         1 T93       0.209000
@<TRIPOS>BOND
     1    22    21 1
     2    21    20 1
     3    20    19 1
     4    19    18 1
     5    18    17 1
     6     1     2 1
     7    17    16 1
     8     4     2 1
     9    16    15 1
    10    23    15 ar
    11    23    11 ar
    12     2     3 1
    13     2     5 1
    14    10    11 1
    15    10     5 1
    16    15    14 ar
    17    11    12 ar
    18     5     6 1
    19    14    13 ar
    20    12    13 ar
    21     9     6 1
    22     6     8 1
    23     6     7 1
    24     5    24 1
    25    10    25 1
    26    13    26 1
    27    14    27 1
    28    17    28 1
    29    17    29 1
    30    18    30 1
    31    18    31 1
    32    19    32 1
    33    19    33 1
    34    20    34 1
    35    20    35 1
    36    21    36 1
    37    21    37 1
    38    22    38 1
    39    22    39 1
    40    22    40 1
    41    23    41 1
@<TRIPOS>SUBSTRUCTURE
     1 T93         1 TEMP              0 ****  ****    0 ROOT
