@<TRIPOS>MOLECULE
T93
   41    41     1     0     0
SMALL
bcc


@<TRIPOS>ATOM
      1 O1           0.0000     0.0000     0.0000 o          1 T93      -0.749667
      2 P2           1.4800     0.0000     0.0000 p5         1 T93       0.453200
      3 O3           2.0170     0.0000     1.5170 o          1 T93      -0.749667
      4 O4           2.0160    -1.3140    -0.7600 o          1 T93      -0.749667
      5 C5           2.0870     1.4880    -0.8600 c3         1 T93       0.118100
      6 P6           1.4780     1.4880    -2.5790 p5         1 T93       0.453200
      7 O7           2.0150     0.1740    -3.3380 o          1 T93      -0.749667
      8 O8          -0.1320     1.4880    -2.5780 o          1 T93      -0.749667
      9 O9           1.9710     2.6970    -3.2770 o          1 T93      -0.749667
     10 N10          1.5990     2.6850    -0.1700 nu         1 T93      -0.049900
     11 C11          2.1690     3.9240    -0.4380 ca         1 T93       0.342200
     12 N12          1.7230     5.0020     0.1910 nb         1 T93      -0.786000
     13 C13          2.2350     6.1980    -0.0320 ca         1 T93       0.454200
     14 C14          3.2620     6.3720    -0.9350 ca         1 T93      -0.611300
     15 C15          3.7630     5.2640    -1.6190 ca         1 T93       0.078100
     16 O16          4.7740     5.4000    -2.5150 os         1 T93      -0.290900
     17 C17          5.2900     6.7170    -2.7170 c3         1 T93       0.204400
     18 C18          6.4150     6.6700    -3.7530 c3         1 T93      -0.043400
     19 C19          6.9670     8.0810    -3.9690 c3         1 T93      -0.026400
     20 C20          8.0920     8.0350    -5.0050 c3         1 T93      -0.032400
     21 C21          8.6440     9.4450    -5.2210 c3         1 T93      -0.031400
     22 C22          9.7690     9.3990    -6.2580 c3         1 T93       0.004900
     23 C23          3.2060     4.0180    -1.3570 ca         1 T93      -0.185300
     24 H051         3.1700     1.4880    -0.8600 h1         1 T93       0.027700
     25 H101         0.8650     2.6080     0.5060 hn         1 T93       0.256800
     26 H131         1.8430     7.0550     0.5020 h4         1 T93      -0.110900
     27 H141         3.6750     7.3580    -1.1110 ha         1 T93       0.061000
     28 H171         4.4980     7.3640    -3.0730 h1         1 T93      -0.017800
     29 H172         5.6780     7.1000    -1.7810 h1         1 T93      -0.017800
     30 H182         6.0270     6.2870    -4.6900 hc         1 T93       0.019700
     31 H181         7.2070     6.0220    -3.3980 hc         1 T93       0.019700
     32 H192         7.3540     8.4640    -3.0320 hc         1 T93       0.005700
     33 H191         6.1750     8.7280    -4.3240 hc         1 T93       0.005700
     34 H202         7.7050     7.6510    -5.9410 hc         1 T93       0.014200
     35 H201         8.8840     7.3870    -4.6500 hc         1 T93       0.014200
     36 H212         7.8520    10.0930    -5.5770 hc         1 T93       0.006200
     37 H211         9.0320     9.8290    -4.2850 hc         1 T93       0.006200
     38 H223         9.3820     9.0160    -7.1940 hc         1 T93      -0.009633
     39 H221        10.1610    10.3980    -6.4110 hc         1 T93      -0.009633
     40 H222        10.5620     8.7510    -5.9030 hc         1 T93      -0.009633
     41 H231         3.5690     3.1350    -1.8690 ha         1 T93       0.188000
@<TRIPOS>BOND
     1     1     2 1   
     2     2     3 1   
     3     2     4 1   
     4     2     5 1   
     5     5     6 1   
     6     5    10 1   
     7     5    24 1   
     8     6     7 1   
     9     6     8 1   
    10     6     9 1   
    11    10    11 1   
    12    10    25 1   
    13    11    12 ar  
    14    11    23 ar  
    15    12    13 ar  
    16    13    14 ar  
    17    13    26 1   
    18    14    15 ar  
    19    14    27 1   
    20    15    16 1   
    21    15    23 ar  
    22    16    17 1   
    23    17    18 1   
    24    17    28 1   
    25    17    29 1   
    26    18    19 1   
    27    18    30 1   
    28    18    31 1   
    29    19    20 1   
    30    19    32 1   
    31    19    33 1   
    32    20    21 1   
    33    20    34 1   
    34    20    35 1   
    35    21    22 1   
    36    21    36 1   
    37    21    37 1   
    38    22    38 1   
    39    22    39 1   
    40    22    40 1   
    41    23    41 1   
@<TRIPOS>SUBSTRUCTURE
     1 T93         1 TEMP              0 ****  ****    0 ROOT
