@<TRIPOS>MOLECULE
molecule
   41    41     1     0     0
SMALL
bcc


@<TRIPOS>ATOM
      1 C1           0.0000     0.0000     0.0000 ca         1 T94       0.081600
      2 C2           1.3930     0.0000     0.0000 ca         1 T94       0.100100
      3 C3           2.0940     0.0000     1.2040 ca         1 T94       0.081600
      4 C4           1.4080     0.0000     2.4030 ca         1 T94      -0.117500
      5 C5           0.0080     0.0010     2.4080 ca         1 T94      -0.159600
      6 C6          -0.6920     0.0010     1.1950 ca         1 T94      -0.117500
      7 O7           3.4540    -0.0010     1.1980 oh         1 T94      -0.508600
      8 O8           2.0710    -0.0010    -1.1780 oh         1 T94      -0.507100
      9 O9          -0.6800     0.0050    -1.1780 oh         1 T94      -0.508600
     10 C10         -0.7230     0.0010     3.6810 c          1 T94       0.576700
     11 C11         -2.2300     0.0020     3.6840 c3         1 T94      -0.178400
     12 C12         -2.7380     0.0030     5.1280 c3         1 T94      -0.072400
     13 C13         -4.2680     0.0030     5.1300 c3         1 T94      -0.084400
     14 C14         -4.7750     0.0040     6.5730 c3         1 T94      -0.080400
     15 C15         -6.3050     0.0050     6.5750 c3         1 T94      -0.082400
     16 C16         -6.8130     0.0050     8.0200 c3         1 T94      -0.081400
     17 C17         -8.3430     0.0060     8.0220 c3         1 T94      -0.084400
     18 C18         -8.8500     0.0060     9.4660 c3         1 T94      -0.092100
     19 O19         -0.1150     0.0020     4.7310 o          1 T94      -0.522100
     20 H1           1.9530     0.0000     3.3400 ha         1 T94       0.157000
     21 H2          -1.7750     0.0010     1.1940 ha         1 T94       0.157000
     22 H3           3.7700     0.8490     1.4540 ho         1 T94       0.426500
     23 H4           2.2250    -0.8900    -1.4510 ho         1 T94       0.435000
     24 H5          -1.0110     0.8720    -1.3460 ho         1 T94       0.426500
     25 H6          -2.5930    -0.8820     3.1740 hc         1 T94       0.065700
     26 H7          -2.5920     0.8870     3.1730 hc         1 T94       0.065700
     27 H8          -2.3760     0.8880     5.6380 hc         1 T94       0.056200
     28 H9          -2.3760    -0.8810     5.6380 hc         1 T94       0.056200
     29 H10         -4.6300    -0.8810     4.6210 hc         1 T94       0.039200
     30 H11         -4.6300     0.8880     4.6200 hc         1 T94       0.039200
     31 H12         -4.4130     0.8880     7.0830 hc         1 T94       0.043700
     32 H13         -4.4140    -0.8810     7.0830 hc         1 T94       0.043700
     33 H14         -6.6670     0.8900     6.0660 hc         1 T94       0.040700
     34 H15         -6.6680    -0.8790     6.0650 hc         1 T94       0.040700
     35 H16         -6.4520    -0.8800     8.5290 hc         1 T94       0.041700
     36 H17         -6.4500     0.8890     8.5300 hc         1 T94       0.041700
     37 H18         -8.7060    -0.8790     7.5120 hc         1 T94       0.039700
     38 H19         -8.7040     0.8910     7.5120 hc         1 T94       0.039700
     39 H20         -8.4820    -0.8740     9.9780 hc         1 T94       0.032700
     40 H21         -8.4930     0.8950     9.9730 hc         1 T94       0.032700
     41 H22         -9.9330    -0.0010     9.4680 hc         1 T94       0.032700
@<TRIPOS>BOND
     1     9     1 1
     2    19    10 2
     3    14    13 1
     4    14    15 1
     5     6     1 ar
     6     6     5 ar
     7     1     2 ar
     8    12    13 1
     9    12    11 1
    10    10     5 1
    11    10    11 1
    12     5     4 ar
    13     2     8 1
    14     2     3 ar
    15    18    17 1
    16    15    16 1
    17     4     3 ar
    18     3     7 1
    19    16    17 1
    20     4    20 1
    21     6    21 1
    22     7    22 1
    23     8    23 1
    24     9    24 1
    25    11    25 1
    26    11    26 1
    27    12    27 1
    28    12    28 1
    29    13    29 1
    30    13    30 1
    31    14    31 1
    32    14    32 1
    33    15    33 1
    34    15    34 1
    35    16    35 1
    36    16    36 1
    37    17    37 1
    38    17    38 1
    39    18    39 1
    40    18    40 1
    41    18    41 1
@<TRIPOS>SUBSTRUCTURE
     1 T94         1 TEMP              0 ****  ****    0 ROOT
