@<TRIPOS>MOLECULE
T94
   41    41     1     0     0
SMALL
bcc


@<TRIPOS>ATOM
      1 C1         -0.1560   -0.0360   -0.0240 ca        1 T94      0.095100
      2 C2          1.2480    0.0500   -0.1030 ca        1 T94      0.048100
      3 C3          1.9950    0.1380    1.0870 ca        1 T94      0.095100
      4 C4          1.3560    0.1400    2.3280 ca        1 T94     -0.140000
      5 C5         -0.0420    0.0550    2.3940 ca        1 T94     -0.139600
      6 C6         -0.7980   -0.0340    1.2230 ca        1 T94     -0.140000
      7 O7          3.3640    0.2190    0.9360 oh        1 T94     -0.503100
      8 O8          1.8090    0.0420   -1.3590 oh        1 T94     -0.509100
      9 O9         -0.9530   -0.1260   -1.1390 oh        1 T94     -0.503100
     10 C10        -0.6790    0.0620    3.7330 c         1 T94      0.579700
     11 C11        -2.1800    0.0070    3.7720 c3        1 T94     -0.175400
     12 C12        -2.7220    0.0470    5.1840 c3        1 T94     -0.075400
     13 C13        -4.2340   -0.0120    5.1880 c3        1 T94     -0.079400
     14 C14        -4.7780    0.0290    6.6000 c3        1 T94     -0.078400
     15 C15        -6.2900   -0.0280    6.6080 c3        1 T94     -0.079400
     16 C16        -6.8340    0.0140    8.0200 c3        1 T94     -0.079400
     17 C17        -8.3470   -0.0430    8.0290 c3        1 T94     -0.080400
     18 C18        -8.8930   -0.0010    9.4330 c3        1 T94     -0.093100
     19 O19         0.0050    0.1110    4.7640 o         1 T94     -0.535100
     20 H1          1.9390    0.2080    3.2600 ha        1 T94      0.160500
     21 H2         -1.8950   -0.1030    1.2440 ha        1 T94      0.160500
     22 H3          3.7570    0.2710    1.8190 ho        1 T94      0.439000
     23 H4          2.7720    0.1050   -1.2550 ho        1 T94      0.451000
     24 H5         -0.3790   -0.1180   -1.9210 ho        1 T94      0.439000
     25 H6         -2.5150   -0.9360    3.2630 hc        1 T94      0.069700
     26 H7         -2.5840    0.8750    3.1850 hc        1 T94      0.069700
     27 H8         -2.3020   -0.8140    5.7690 hc        1 T94      0.055200
     28 H9         -2.3720    0.9840    5.6920 hc        1 T94      0.055200
     29 H10        -4.6470    0.8510    4.6010 hc        1 T94      0.038700
     30 H11        -4.5770   -0.9520    4.6810 hc        1 T94      0.038700
     31 H12        -4.4340    0.9690    7.1080 hc        1 T94      0.042700
     32 H13        -4.3650   -0.8330    7.1870 hc        1 T94      0.042700
     33 H14        -6.6330   -0.9680    6.1000 hc        1 T94      0.038700
     34 H15        -6.7020    0.8340    6.0200 hc        1 T94      0.038700
     35 H16        -6.4220   -0.8480    8.6070 hc        1 T94      0.039700
     36 H17        -6.4910    0.9540    8.5270 hc        1 T94      0.039700
     37 H18        -8.6880   -0.9830    7.5200 hc        1 T94      0.038700
     38 H19        -8.7570    0.8190    7.4390 hc        1 T94      0.038700
     39 H20        -8.5150   -0.8660   10.0290 hc        1 T94      0.032700
     40 H21       -10.0090   -0.0440    9.4170 hc        1 T94      0.032700
     41 H22        -8.5840    0.9400    9.9480 hc        1 T94      0.032700
@<TRIPOS>BOND
     1    1    2 ar  
     2    1    6 ar  
     3    1    9 1   
     4    2    3 ar  
     5    2    8 1   
     6    3    4 ar  
     7    3    7 1   
     8    4    5 ar  
     9    4   20 1   
    10    5    6 ar  
    11    5   10 1   
    12    6   21 1   
    13    7   22 1   
    14    8   23 1   
    15    9   24 1   
    16   10   11 1   
    17   10   19 2   
    18   11   12 1   
    19   11   25 1   
    20   11   26 1   
    21   12   13 1   
    22   12   27 1   
    23   12   28 1   
    24   13   14 1   
    25   13   29 1   
    26   13   30 1   
    27   14   15 1   
    28   14   31 1   
    29   14   32 1   
    30   15   16 1   
    31   15   33 1   
    32   15   34 1   
    33   16   17 1   
    34   16   35 1   
    35   16   36 1   
    36   17   18 1   
    37   17   37 1   
    38   17   38 1   
    39   18   39 1   
    40   18   40 1   
    41   18   41 1   
@<TRIPOS>SUBSTRUCTURE
     1 T94         1 TEMP              0 ****  ****    0 ROOT
