@<TRIPOS>MOLECULE
molecule
   81    85     1     0     0
SMALL
bcc


@<TRIPOS>ATOM
      1 O12          0.0000     0.0000     0.0000 o          1 T95      -0.573100
      2 C7           1.2160     0.0000     0.0000 c          1 T95       0.685700
      3 N8           1.8900     0.0000     1.1670 ns         1 T95      -0.485100
      4 C9           1.1940     0.0970     2.3760 ca         1 T95       0.052600
      5 C33          1.4320    -0.8190     3.3920 ca         1 T95      -0.079300
      6 C35          2.4430    -1.9190     3.1940 c3         1 T95      -0.047300
      7 C32          0.7430    -0.7190     4.5860 ca         1 T95      -0.124000
      8 C31         -0.1830     0.2910     4.7680 ca         1 T95      -0.129000
      9 C30         -0.4230     1.2040     3.7580 ca         1 T95      -0.124000
     10 C29          0.2670     1.1150     2.5650 ca         1 T95      -0.079300
     11 C34          0.0090     2.1140     1.4670 c3         1 T95      -0.047300
     12 C5           1.9530    -0.0070    -1.2760 ca         1 T95      -0.473200
     13 C6           3.3520    -0.0070    -1.2970 ca         1 T95       0.537200
     14 N1           3.9760    -0.0130    -2.4610 nb         1 T95      -0.817000
     15 C4           1.2680    -0.0180    -2.5070 ca         1 T95       0.780600
     16 O10         -0.0850    -0.0230    -2.5430 os         1 T95      -0.291400
     17 C11         -0.6920     0.0720    -3.7560 ca         1 T95       0.067100
     18 C25         -0.9170    -1.0740    -4.5150 ca         1 T95       0.156100
     19 O26         -0.5300    -2.2890    -4.0450 os         1 T95      -0.314900
     20 C27         -0.7940    -3.4210    -4.8770 c3         1 T95       0.135400
     21 C28         -0.2910    -4.6900    -4.1860 c3         1 T95      -0.093100
     22 C24         -1.5360    -0.9720    -5.7500 ca         1 T95      -0.220000
     23 C23         -1.9300     0.2660    -6.2260 ca         1 T95      -0.084000
     24 C22         -1.7050     1.4030    -5.4730 ca         1 T95      -0.164000
     25 C21         -1.0940     1.3080    -4.2370 ca         1 T95      -0.085000
     26 N3           1.9720    -0.0240    -3.6310 nb         1 T95      -0.865000
     27 C2           3.2970    -0.0180    -3.6010 ca         1 T95       0.986900
     28 N13          3.9920    -0.0250    -4.7940 nu         1 T95      -0.742300
     29 C14          5.3920     0.0250    -4.7880 ca         1 T95       0.122600
     30 C19          6.1150    -0.6730    -5.7470 ca         1 T95      -0.115000
     31 C18          7.4950    -0.6240    -5.7420 ca         1 T95      -0.153000
     32 C17          8.1600     0.1230    -4.7770 ca         1 T95       0.093600
     33 C16          7.4370     0.8190    -3.8180 ca         1 T95      -0.153000
     34 C15          6.0570     0.7750    -3.8270 ca         1 T95      -0.115000
     35 N20          9.5580     0.1710    -4.7720 nh         1 T95      -0.599000
     36 C40         10.0510     1.0130    -3.6720 c3         1 T95       0.166300
     37 C39         11.5810     0.9770    -3.6530 c3         1 T95       0.160300
     38 N38         12.0970     1.4470    -4.9450 n3         1 T95      -0.717600
     39 C37         11.6040     0.6060    -6.0440 c3         1 T95       0.160300
     40 C36         10.0740     0.6410    -6.0640 c3         1 T95       0.166300
     41 C41         13.5650     1.4990    -4.9400 c3         1 T95       0.159800
     42 C42         14.0560     2.2210    -6.1950 c3         1 T95       0.141400
     43 O43         13.6290     3.5850    -6.1570 oh         1 T95      -0.591800
     44 HN8          2.8900    -0.0400     1.1680 hn         1 T95       0.316500
     45 H35          3.4200    -1.4850     3.0230 hc         1 T95       0.046033
     46 H35A         2.1590    -2.5200     2.3380 hc         1 T95       0.046033
     47 H35B         2.4750    -2.5430     4.0790 hc         1 T95       0.046033
     48 H32          0.9290    -1.4330     5.3790 ha         1 T95       0.131000
     49 H31         -0.7240     0.3650     5.7030 ha         1 T95       0.128000
     50 H30         -1.1480     1.9960     3.9050 ha         1 T95       0.131000
     51 H34         -0.7860     1.7500     0.8280 hc         1 T95       0.046033
     52 H34A        -0.2820     3.0620     1.9020 hc         1 T95       0.046033
     53 H34B         0.9110     2.2470     0.8810 hc         1 T95       0.046033
     54 H6           3.9160    -0.0030    -0.3720 h4         1 T95       0.028100
     55 H27         -0.2830    -3.2990    -5.8250 h1         1 T95       0.033700
     56 H27A        -1.8600    -3.5020    -5.0500 h1         1 T95       0.033700
     57 H28          0.7810    -4.7730    -4.3200 hc         1 T95       0.049367
     58 H28A        -0.5200    -4.6400    -3.1280 hc         1 T95       0.049367
     59 H28B        -0.7770    -5.5550    -4.6210 hc         1 T95       0.049367
     60 H24         -1.7130    -1.8610    -6.3430 ha         1 T95       0.139000
     61 H23         -2.4120     0.3450    -7.1930 ha         1 T95       0.132000
     62 H22         -2.0170     2.3700    -5.8480 ha         1 T95       0.135000
     63 H21         -0.9190     2.2010    -3.6490 ha         1 T95       0.147000
     64 HN13         3.4960    -0.0370    -5.6630 hn         1 T95       0.468800
     65 H19          5.5960    -1.2550    -6.4990 ha         1 T95       0.144500
     66 H18          8.0590    -1.1680    -6.4900 ha         1 T95       0.139000
     67 H16          7.9560     1.4030    -3.0680 ha         1 T95       0.139000
     68 H15          5.4930     1.3190    -3.0790 ha         1 T95       0.144500
     69 H40          9.7170     2.0320    -3.8210 h1         1 T95       0.050700
     70 H40A         9.6700     0.6360    -2.7310 h1         1 T95       0.050700
     71 H39         11.9460     1.6220    -2.8630 h1         1 T95       0.041950
     72 H39A        11.9150    -0.0390    -3.4800 h1         1 T95       0.041950
     73 H37         11.9860     0.9820    -6.9850 h1         1 T95       0.041950
     74 H37A        11.9390    -0.4140    -5.8950 h1         1 T95       0.041950
     75 H36          9.7400     1.6570    -6.2370 h1         1 T95       0.050700
     76 H36A         9.7090    -0.0040    -6.8540 h1         1 T95       0.050700
     77 H41         13.9050     2.0320    -4.0600 h1         1 T95       0.041200
     78 H41A        13.9620     0.4900    -4.9250 h1         1 T95       0.041200
     79 H42         15.1380     2.1820    -6.2350 h1         1 T95       0.025200
     80 H42A        13.6450     1.7390    -7.0740 h1         1 T95       0.025200
     81 HO43        14.2800     4.1290    -6.5690 ho         1 T95       0.394000
@<TRIPOS>BOND
     1     1     2 2
     2     2     3 1
     3     2    12 1
     4     3     4 1
     5     4     5 ar
     6     4    10 ar
     7     5     6 1
     8     5     7 ar
     9     7     8 ar
    10     8     9 ar
    11     9    10 ar
    12    10    11 1
    13    12    13 ar
    14    12    15 ar
    15    13    14 ar
    16    14    27 ar
    17    15    16 1
    18    15    26 ar
    19    16    17 1
    20    17    18 ar
    21    17    25 ar
    22    18    19 1
    23    18    22 ar
    24    19    20 1
    25    20    21 1
    26    22    23 ar
    27    23    24 ar
    28    24    25 ar
    29    26    27 ar
    30    27    28 1
    31    28    29 1
    32    29    30 ar
    33    29    34 ar
    34    30    31 ar
    35    31    32 ar
    36    32    33 ar
    37    32    35 1
    38    33    34 ar
    39    35    36 1
    40    35    40 1
    41    36    37 1
    42    37    38 1
    43    38    39 1
    44    38    41 1
    45    39    40 1
    46    41    42 1
    47    42    43 1
    48     3    44 1
    49     6    45 1
    50     6    46 1
    51     6    47 1
    52     7    48 1
    53     8    49 1
    54     9    50 1
    55    11    51 1
    56    11    52 1
    57    11    53 1
    58    13    54 1
    59    20    55 1
    60    20    56 1
    61    21    57 1
    62    21    58 1
    63    21    59 1
    64    22    60 1
    65    23    61 1
    66    24    62 1
    67    25    63 1
    68    28    64 1
    69    30    65 1
    70    31    66 1
    71    33    67 1
    72    34    68 1
    73    36    69 1
    74    36    70 1
    75    37    71 1
    76    37    72 1
    77    39    73 1
    78    39    74 1
    79    40    75 1
    80    40    76 1
    81    41    77 1
    82    41    78 1
    83    42    79 1
    84    42    80 1
    85    43    81 1
@<TRIPOS>SUBSTRUCTURE
     1 T95         1 TEMP              0 ****  ****    0 ROOT
