@<TRIPOS>MOLECULE
T97
   61    62     1     0     0
SMALL
bcc


@<TRIPOS>ATOM
      1 C01          0.0000     0.0000     0.0000 ca         1 T97      -0.036600
      2 C02          1.3850     0.0000     0.0000 ca         1 T97      -0.043600
      3 C03          2.0760     0.0000     1.1990 ca         1 T97      -0.086000
      4 C04          1.3830     0.0000     2.3950 ca         1 T97      -0.088000
      5 C05         -0.0000     0.0000     2.3940 ca         1 T97      -0.079300
      6 C06         -0.6910     0.0050     1.1980 ca         1 T97      -0.090000
      7 C07         -0.7540    -0.0000     3.7000 c3         1 T97       0.020900
      8 C08         -1.0090     1.4420     4.1420 c3         1 T97       0.144800
      9 N09         -1.7440     1.4410     5.4130 n3         1 T97      -0.521600
     10 C10         -3.0930     0.8850     5.2420 c3         1 T97       0.139800
     11 C11         -3.6720     0.5210     6.6110 c3         1 T97      -0.055700
     12 C12         -5.1140     0.0420     6.4430 c3         1 T97       0.004400
     13 C13         -2.8330    -0.5940     7.2400 c3         1 T97       0.004400
     14 C14         -1.8010     2.7920     5.9890 c3         1 T97       0.137800
     15 C15         -0.4410     3.1460     6.5950 c3         1 T97       0.184100
     16 C16         -0.4790     4.5790     7.1310 c3         1 T97       0.167400
     17 O17          0.8210     4.9490     7.5910 os         1 T97      -0.306900
     18 C18          0.9610     6.2020     8.1020 ca         1 T97       0.156100
     19 C19         -0.1330     7.0530     8.1630 ca         1 T97      -0.171000
     20 C20          0.0090     8.3250     8.6810 ca         1 T97      -0.058500
     21 C21          1.2470     8.7520     9.1420 ca         1 T97      -0.003400
     22 C22          2.3420     7.9010     9.0810 ca         1 T97      -0.058500
     23 C23          2.1970     6.6270     8.5670 ca         1 T97      -0.171000
     24 N24          1.3910    10.0420     9.6680 nu         1 T97      -0.426500
     25 S25          2.1640    11.2120     8.7880 s6         1 T97       0.949900
     26 C26          1.1200    11.4420     7.3220 c3         1 T97       0.012700
     27 O27          2.1170    12.3640     9.6180 o          1 T97      -0.584300
     28 O28          3.4050    10.6190     8.4280 o          1 T97      -0.584300
     29 O29         -0.1470     2.2450     7.6650 oh         1 T97      -0.568800
     30 Cl1          2.2540    -0.0010    -1.5020 cl         1 T97      -0.003400
     31 Cl2         -0.8670     0.0000    -1.5040 cl         1 T97      -0.004400
     32 H1           3.1590    -0.0000     1.2010 ha         1 T97       0.118000
     33 H2           1.9230    -0.0020     3.3340 ha         1 T97       0.113000
     34 H3          -1.7740     0.0050     1.1980 ha         1 T97       0.119000
     35 H4          -1.7000    -0.5120     3.5700 hc         1 T97       0.031700
     36 H5          -0.1680    -0.5110     4.4550 hc         1 T97       0.031700
     37 H6          -0.0630     1.9530     4.2720 h1         1 T97       0.012700
     38 H7          -1.5950     1.9530     3.3870 h1         1 T97       0.012700
     39 H9          -3.7290     1.6200     4.7650 h1         1 T97       0.014700
     40 H10         -3.0410    -0.0030     4.6240 h1         1 T97       0.014700
     41 H11         -3.6540     1.3930     7.2540 hc         1 T97       0.031700
     42 H12         -5.7040     0.8240     5.9810 hc         1 T97       0.005367
     43 H13         -5.5310    -0.1980     7.4140 hc         1 T97       0.005367
     44 H14         -5.1310    -0.8410     5.8160 hc         1 T97       0.005367
     45 H15         -2.8470    -1.4640     6.5950 hc         1 T97       0.005367
     46 H16         -1.8130    -0.2520     7.3640 hc         1 T97       0.005367
     47 H17         -3.2460    -0.8550     8.2070 hc         1 T97       0.005367
     48 H18         -2.5600     2.8230     6.7620 h1         1 T97       0.022200
     49 H19         -2.0470     3.5050     5.2120 h1         1 T97       0.022200
     50 H20          0.3260     3.0650     5.8340 h1         1 T97       0.012700
     51 H21         -0.7880     5.2520     6.3410 h1         1 T97       0.011200
     52 H22         -1.1840     4.6390     7.9520 h1         1 T97       0.011200
     53 H23         -1.0990     6.7200     7.8040 ha         1 T97       0.120000
     54 H24         -0.8460     8.9880     8.7290 ha         1 T97       0.118000
     55 H25          3.3070     8.2330     9.4420 ha         1 T97       0.118000
     56 H26          3.0520     5.9630     8.5190 ha         1 T97       0.120000
     57 H27          1.0420    10.2510    10.5820 hn         1 T97       0.349800
     58 H28          1.2880    10.6270     6.6280 h1         1 T97       0.063033
     59 H29          1.3700    12.3810     6.8440 h1         1 T97       0.063033
     60 H30          0.0780    11.4540     7.6200 h1         1 T97       0.063033
     61 H31          0.7860     2.1310     7.7330 ho         1 T97       0.395000
@<TRIPOS>BOND
     1     1     2 ar  
     2     1     6 ar  
     3     1    31 1   
     4     2     3 ar  
     5     2    30 1   
     6     3     4 ar  
     7     3    32 1   
     8     4     5 ar  
     9     4    33 1   
    10     5     6 ar  
    11     5     7 1   
    12     6    34 1   
    13     7     8 1   
    14     7    35 1   
    15     7    36 1   
    16     8     9 1   
    17     8    37 1   
    18     8    38 1   
    19     9    10 1   
    20     9    14 1   
    21    10    11 1   
    22    10    39 1   
    23    10    40 1   
    24    11    12 1   
    25    11    13 1   
    26    11    41 1   
    27    12    42 1   
    28    12    43 1   
    29    12    44 1   
    30    13    45 1   
    31    13    46 1   
    32    13    47 1   
    33    14    15 1   
    34    14    48 1   
    35    14    49 1   
    36    15    16 1   
    37    15    29 1   
    38    15    50 1   
    39    16    17 1   
    40    16    51 1   
    41    16    52 1   
    42    17    18 1   
    43    18    19 ar  
    44    18    23 ar  
    45    19    20 ar  
    46    19    53 1   
    47    20    21 ar  
    48    20    54 1   
    49    21    22 ar  
    50    21    24 1   
    51    22    23 ar  
    52    22    55 1   
    53    23    56 1   
    54    24    25 1   
    55    24    57 1   
    56    25    26 1   
    57    25    27 2   
    58    25    28 2   
    59    26    58 1   
    60    26    59 1   
    61    26    60 1   
    62    29    61 1   
@<TRIPOS>SUBSTRUCTURE
     1 T97         1 TEMP              0 ****  ****    0 ROOT
