@<TRIPOS>MOLECULE
molecule
   61    62     1     0     0
SMALL
bcc


@<TRIPOS>ATOM
      1 C01          0.0000     0.0000     0.0000 ca         1 T97       0.032400
      2 C02          1.3850     0.0000     0.0000 ca         1 T97       0.026400
      3 C03          2.0760     0.0000     1.1990 ca         1 T97      -0.111000
      4 C04          1.3830     0.0000     2.3950 ca         1 T97      -0.117000
      5 C05         -0.0000     0.0000     2.3940 ca         1 T97      -0.076300
      6 C06         -0.6910     0.0050     1.1980 ca         1 T97      -0.113000
      7 C07         -0.7540    -0.0000     3.7000 c3         1 T97      -0.036100
      8 C08         -1.0090     1.4420     4.1420 c3         1 T97       0.161800
      9 N09         -1.7440     1.4410     5.4130 n3         1 T97      -0.719600
     10 C10         -3.0930     0.8850     5.2420 c3         1 T97       0.161800
     11 C11         -3.6720     0.5210     6.6110 c3         1 T97      -0.072700
     12 C12         -5.1140     0.0420     6.4430 c3         1 T97      -0.086600
     13 C13         -2.8330    -0.5940     7.2400 c3         1 T97      -0.086600
     14 C14         -1.8010     2.7920     5.9890 c3         1 T97       0.163800
     15 C15         -0.4410     3.1460     6.5950 c3         1 T97       0.155100
     16 C16         -0.4790     4.5790     7.1310 c3         1 T97       0.106400
     17 O17          0.8210     4.9490     7.5910 os         1 T97      -0.330900
     18 C18          0.9610     6.2020     8.1020 ca         1 T97       0.152100
     19 C19         -0.1330     7.0530     8.1630 ca         1 T97      -0.187500
     20 C20          0.0090     8.3250     8.6810 ca         1 T97      -0.083000
     21 C21          1.2470     8.7520     9.1420 ca         1 T97       0.072600
     22 C22          2.3420     7.9010     9.0810 ca         1 T97      -0.083000
     23 C23          2.1970     6.6270     8.5670 ca         1 T97      -0.187500
     24 N24          1.3910    10.0420     9.6680 nu         1 T97      -0.778500
     25 S25          2.1640    11.2120     8.7880 s6         1 T97       1.324900
     26 C26          1.1200    11.4420     7.3220 c3         1 T97      -0.244300
     27 O27          2.1170    12.3640     9.6180 o          1 T97      -0.627300
     28 O28          3.4050    10.6190     8.4280 o          1 T97      -0.627300
     29 O29         -0.1470     2.2450     7.6650 oh         1 T97      -0.584800
     30 Cl1          2.2540    -0.0010    -1.5020 cl         1 T97      -0.086400
     31 Cl2         -0.8670     0.0000    -1.5040 cl         1 T97      -0.086400
     32 H1           3.1590    -0.0000     1.2010 ha         1 T97       0.151000
     33 H2           1.9230    -0.0020     3.3340 ha         1 T97       0.143000
     34 H3          -1.7740     0.0050     1.1980 ha         1 T97       0.149000
     35 H4          -1.7000    -0.5120     3.5700 hc         1 T97       0.062700
     36 H5          -0.1680    -0.5110     4.4550 hc         1 T97       0.062700
     37 H6          -0.0630     1.9530     4.2720 h1         1 T97       0.036700
     38 H7          -1.5950     1.9530     3.3870 h1         1 T97       0.036700
     39 H9          -3.7290     1.6200     4.7650 h1         1 T97       0.035200
     40 H10         -3.0410    -0.0030     4.6240 h1         1 T97       0.035200
     41 H11         -3.6540     1.3930     7.2540 hc         1 T97       0.052700
     42 H12         -5.7040     0.8240     5.9810 hc         1 T97       0.036367
     43 H13         -5.5310    -0.1980     7.4140 hc         1 T97       0.036367
     44 H14         -5.1310    -0.8410     5.8160 hc         1 T97       0.036367
     45 H15         -2.8470    -1.4640     6.5950 hc         1 T97       0.036367
     46 H16         -1.8130    -0.2520     7.3640 hc         1 T97       0.036367
     47 H17         -3.2460    -0.8550     8.2070 hc         1 T97       0.036367
     48 H18         -2.5600     2.8230     6.7620 h1         1 T97       0.047200
     49 H19         -2.0470     3.5050     5.2120 h1         1 T97       0.047200
     50 H20          0.3260     3.0650     5.8340 h1         1 T97       0.044700
     51 H21         -0.7880     5.2520     6.3410 h1         1 T97       0.045200
     52 H22         -1.1840     4.6390     7.9520 h1         1 T97       0.045200
     53 H23         -1.0990     6.7200     7.8040 ha         1 T97       0.144500
     54 H24         -0.8460     8.9880     8.7290 ha         1 T97       0.148500
     55 H25          3.3070     8.2330     9.4420 ha         1 T97       0.148500
     56 H26          3.0520     5.9630     8.5190 ha         1 T97       0.144500
     57 H27          1.0420    10.2510    10.5820 hn         1 T97       0.464800
     58 H28          1.2880    10.6270     6.6280 h1         1 T97       0.098367
     59 H29          1.3700    12.3810     6.8440 h1         1 T97       0.098367
     60 H30          0.0780    11.4540     7.6200 h1         1 T97       0.098367
     61 H31          0.7860     2.1310     7.7330 ho         1 T97       0.409000
@<TRIPOS>BOND
     1    12    11 1
     2    26    25 1
     3    10    11 1
     4    10     9 1
     5    14     9 1
     6    14    15 1
     7    11    13 1
     8     9     8 1
     9    25    27 2
    10    25    28 2
    11    25    24 1
    12    20    19 ar
    13    20    21 ar
    14    19    18 ar
    15    16    15 1
    16    16    17 1
    17     8     7 1
    18    15    29 1
    19     4     3 ar
    20     4     5 ar
    21    24    21 1
    22     7     5 1
    23    21    22 ar
    24     3     2 ar
    25    18    17 1
    26    18    23 ar
    27     5     6 ar
    28     2    30 1
    29     2     1 ar
    30     6     1 ar
    31     1    31 1
    32    22    23 ar
    33     3    32 1
    34     4    33 1
    35     6    34 1
    36     7    35 1
    37     7    36 1
    38     8    37 1
    39     8    38 1
    40    10    39 1
    41    10    40 1
    42    11    41 1
    43    12    42 1
    44    12    43 1
    45    12    44 1
    46    13    45 1
    47    13    46 1
    48    13    47 1
    49    14    48 1
    50    14    49 1
    51    15    50 1
    52    16    51 1
    53    16    52 1
    54    19    53 1
    55    20    54 1
    56    22    55 1
    57    23    56 1
    58    24    57 1
    59    26    58 1
    60    26    59 1
    61    26    60 1
    62    29    61 1
@<TRIPOS>SUBSTRUCTURE
     1 T97         1 TEMP              0 ****  ****    0 ROOT
