@<TRIPOS>MOLECULE
molecule
   36    38     1     0     0
SMALL
bcc


@<TRIPOS>ATOM
      1 C1           0.0000     0.0000     0.0000 c3         1 T98      -0.095100
      2 C2           1.5300     0.0000     0.0000 c3         1 T98       0.196100
      3 C3           2.0380     0.0000     1.4210 ca         1 T98      -0.143300
      4 C4           1.3430    -0.6490     2.4140 ca         1 T98      -0.072000
      5 C5           1.8270    -0.6350     3.7250 ca         1 T98      -0.022000
      6 C6           3.0220     0.0290     4.0170 ca         1 T98      -0.117000
      7 C7           3.7160     0.6740     3.0150 ca         1 T98      -0.148000
      8 C8           3.2270     0.6630     1.7140 ca         1 T98       0.045600
      9 N1           3.9200     1.3170     0.6920 ns         1 T98      -0.412100
     10 C9           3.3040     1.5750    -0.4800 cs         1 T98       0.634500
     11 S1           4.1500     2.3760    -1.7340 s          1 T98      -0.553400
     12 O1           2.0200     1.1990    -0.6630 os         1 T98      -0.343900
     13 C10          1.0830    -1.3240     4.7970 cc         1 T98      -0.051300
     14 C11          0.1660    -2.3370     4.6190 cd         1 T98      -0.191000
     15 C12         -0.3040    -2.7080     5.8780 cd         1 T98      -0.136000
     16 C13          0.3390    -1.9190     6.8100 cc         1 T98      -0.059300
     17 N2           1.1920    -1.0750     6.1350 na         1 T98      -0.019100
     18 C14          2.0660    -0.0700     6.7500 c3         1 T98       0.008600
     19 C15          0.1530    -1.9690     8.2290 cg         1 T98       0.264800
     20 N3          -0.0140    -2.0080     9.3520 n1         1 T98      -0.356800
     21 C16          2.0450    -1.2420    -0.7320 c3         1 T98      -0.095100
     22 H11A        -0.3610     1.0010     0.2040 hc         1 T98       0.056367
     23 H12A        -0.3610    -0.3230    -0.9690 hc         1 T98       0.056367
     24 H13         -0.3610    -0.6770     0.7640 hc         1 T98       0.056367
     25 H4           0.4210    -1.1670     2.1800 ha         1 T98       0.152000
     26 H6           3.4000     0.0420     5.0320 ha         1 T98       0.152000
     27 H7           4.6420     1.1880     3.2420 ha         1 T98       0.142000
     28 HN1          4.8610     1.6250     0.8420 hn         1 T98       0.369500
     29 H11         -0.1350    -2.7650     3.6710 ha         1 T98       0.155000
     30 H12         -1.0370    -3.4790     6.0830 ha         1 T98       0.163000
     31 H141         2.9770     0.0190     6.1700 h1         1 T98       0.066033
     32 H142         1.5560     0.8860     6.7720 h1         1 T98       0.066033
     33 H143         2.3090    -0.3740     7.7610 h1         1 T98       0.066033
     34 H161         1.9590    -2.1050    -0.0830 hc         1 T98       0.056367
     35 H162         1.4570    -1.4030    -1.6270 hc         1 T98       0.056367
     36 H163         3.0840    -1.0960    -1.0030 hc         1 T98       0.056367
@<TRIPOS>BOND
     1     1     2 1
     2     1    22 1
     3     1    23 1
     4     1    24 1
     5     2     3 1
     6     2    12 1
     7     2    21 1
     8     3     4 ar
     9     3     8 ar
    10     4     5 ar
    11     4    25 1
    12     5     6 ar
    13     5    13 1
    14     6     7 ar
    15     6    26 1
    16     7     8 ar
    17     7    27 1
    18     8     9 1
    19     9    10 1
    20     9    28 1
    21    10    11 2
    22    10    12 1
    23    13    14 2
    24    13    17 1
    25    14    15 1
    26    14    29 1
    27    15    16 2
    28    15    30 1
    29    16    17 1
    30    16    19 1
    31    17    18 1
    32    18    31 1
    33    18    32 1
    34    18    33 1
    35    19    20 3
    36    21    34 1
    37    21    35 1
    38    21    36 1
@<TRIPOS>SUBSTRUCTURE
     1 T98         1 TEMP              0 ****  ****    0 ROOT
