@<TRIPOS>MOLECULE
molecule
   44    46     1     0     0
SMALL
bcc


@<TRIPOS>ATOM
      1 PA           0.0000     0.0000     0.0000 p5         1 T99       1.473500
      2 PB          -2.0000    -1.8950    -1.0930 p5         1 T99       1.417800
      3 PG          -2.9160    -3.7170    -3.2450 p5         1 T99       1.304900
      4 C5'          2.3880     1.0870     0.5060 c3         1 T99       0.214400
      5 O5'          1.6100     0.0000     0.0000 os         1 T99      -0.552200
      6 C4'          3.8750     0.7630     0.3560 c3         1 T99       0.131100
      7 O4'          4.2540     0.7770    -1.0390 os         1 T99      -0.377600
      8 C3'          4.7350     1.8690     1.0090 c3         1 T99       0.085100
      9 O3'          5.1520     1.4700     2.3170 oh         1 T99      -0.574800
     10 C2'          5.9540     2.0000     0.0690 c3         1 T99       0.082100
     11 O2'          7.1620     1.6880     0.7680 oh         1 T99      -0.565800
     12 C1'          5.6870     0.9600    -1.0420 c3         1 T99       0.257800
     13 N1           9.6100     1.4300    -4.4130 nb         1 T99      -0.776000
     14 O1A         -3.7160    -2.6560    -3.8960 o          1 T99      -0.843167
     15 O1B         -2.8590    -0.8030    -1.6020 o          1 T99      -0.806500
     16 S1G         -0.7070     0.0000     1.9980 sh         1 T99      -0.633200
     17 C2           9.6030     0.8390    -3.2330 ca         1 T99       0.627900
     18 O2A         -0.4940     1.2080    -0.6980 o          1 T99      -0.768300
     19 O2B         -2.6510    -2.5120     0.2440 o          1 T99      -0.806500
     20 O2G         -2.1030    -4.5400    -4.3640 o          1 T99      -0.843167
     21 N3           8.5290     0.7920    -2.4720 nb         1 T99      -0.780000
     22 O3A         -0.5360    -1.3160    -0.7580 os         1 T99      -0.629800
     23 O3B         -1.8780    -3.0480    -2.2110 os         1 T99      -0.708800
     24 O3G         -3.8960    -4.7170    -2.4500 o          1 T99      -0.843167
     25 C4           7.3900     1.3490    -2.8730 ca         1 T99       0.452800
     26 C5           7.3460     1.9900    -4.1220 ca         1 T99      -0.159200
     27 C6           8.5180     2.0140    -4.8970 ca         1 T99       0.675200
     28 N6           8.5350     2.6320    -6.1350 nv         1 T99      -1.064500
     29 N7           6.0880     2.4640    -4.2830 nc         1 T99      -0.595100
     30 C8           5.3740     2.1610    -3.2380 cd         1 T99       0.404700
     31 N9           6.1330     1.4730    -2.3390 na         1 T99      -0.260000
     32 H1           2.1560     1.9870    -0.0500 h1         1 T99       0.040700
     33 H2           2.1560     1.2400     1.5530 h1         1 T99       0.040700
     34 H3           4.1040    -0.1990     0.7960 h1         1 T99       0.092700
     35 H4           4.1850     2.8010     1.0470 h1         1 T99       0.043700
     36 H5           4.9390     2.1490     2.9360 ho         1 T99       0.392000
     37 H6           6.0000     2.9980    -0.3520 h1         1 T99       0.049700
     38 H7           7.6340     2.4840     0.9490 ho         1 T99       0.392000
     39 H8           6.1840     0.0270    -0.8080 h2         1 T99       0.105700
     40 H9          -1.4070     1.1060     2.2200 hs         1 T99       0.336800
     41 H14          8.3230     2.1060    -6.9600 hn         1 T99       0.420300
     42 H15          8.7890     3.5970    -6.2090 hn         1 T99       0.420300
     43 H16          4.3300     2.4180    -3.1020 h5         1 T99       0.091800
     44 H10         10.5140     0.3750    -2.8760 h5         1 T99       0.033100
@<TRIPOS>BOND
     1    15     2 1
     2    19     2 1
     3     2    22 1
     4     2    23 1
     5    14     3 1
     6    22     1 1
     7    23     3 1
     8     5     4 1
     9     5     1 1
    10     3    24 1
    11     3    20 1
    12     4     6 1
    13    29    30 2
    14    29    26 1
    15    30    31 1
    16     1    16 1
    17     1    18 2
    18    10     8 1
    19    10    11 1
    20    10    12 1
    21     6     8 1
    22     6     7 1
    23    28    27 1
    24     8     9 1
    25    26    27 ar
    26    26    25 ar
    27    31    12 1
    28    31    25 1
    29     7    12 1
    30    27    13 ar
    31    25    21 ar
    32    13    17 ar
    33    21    17 ar
    34     4    32 1
    35     4    33 1
    36     6    34 1
    37     8    35 1
    38     9    36 1
    39    10    37 1
    40    11    38 1
    41    12    39 1
    42    16    40 1
    43    17    44 1
    44    28    41 1
    45    28    42 1
    46    30    43 1
@<TRIPOS>SUBSTRUCTURE
     1 T99         1 TEMP              0 ****  ****    0 ROOT
