@<TRIPOS>MOLECULE
T9H
   73    78     1     0     0
SMALL
bcc


@<TRIPOS>ATOM
      1 O4           0.0000     0.0000     0.0000 o          1 T9H      -0.621100
      2 C6           1.2140     0.0000     0.0000 c          1 T9H       0.548100
      3 N2           1.8860     0.0060    -1.1680 ns         1 T9H      -0.030100
      4 C5           1.1920    -0.0990    -2.3740 ca         1 T9H      -0.059400
      5 C4           1.6590     0.5350    -3.5250 ca         1 T9H      -0.241800
      6 C3           0.9440     0.4060    -4.6970 ca         1 T9H       0.422200
      7 N1          -0.1670    -0.3050    -4.7370 nb         1 T9H      -0.599000
      8 C2          -0.6410    -0.9200    -3.6700 ca         1 T9H       0.422200
      9 C1           0.0190    -0.8460    -2.4610 ca         1 T9H      -0.241800
     10 C7           1.9670     0.0000     1.3040 c3         1 T9H      -0.054300
     11 C23          2.8460     1.2500     1.3850 c3         1 T9H       0.067800
     12 C24          3.6920     1.1900     2.6310 cc         1 T9H      -0.168400
     13 C27          4.9810     0.5100     2.7780 ca         1 T9H      -0.091800
     14 C28          5.7890    -0.2340     1.9170 ca         1 T9H      -0.048000
     15 C29          6.9710    -0.7490     2.3700 ca         1 T9H      -0.123000
     16 C30          7.3740    -0.5380     3.6810 ca         1 T9H      -0.081000
     17 C31          6.5930     0.1920     4.5480 ca         1 T9H      -0.098000
     18 C26          5.3860     0.7270     4.1080 ca         1 T9H      -0.223200
     19 N6           4.4070     1.4820     4.7120 na         1 T9H       0.364600
     20 C25          3.4080     1.7530     3.8160 cd         1 T9H      -0.260100
     21 N3           1.0160    -0.0010     2.4180 ns         1 T9H      -0.161900
     22 C8           0.5010    -1.1630     2.8650 c          1 T9H       0.609700
     23 O3           0.8260    -2.2120     2.3420 o          1 T9H      -0.637100
     24 C9          -0.4560    -1.1630     3.9850 ca         1 T9H      -0.212600
     25 C22         -0.9920    -2.3710     4.4510 ca         1 T9H       0.212900
     26 F           -0.6330    -3.5390     3.8740 f          1 T9H      -0.107900
     27 C21         -1.8870    -2.3630     5.5010 ca         1 T9H      -0.186000
     28 C12         -2.2520    -1.1590     6.0910 ca         1 T9H       0.070600
     29 C11         -1.7180     0.0400     5.6260 ca         1 T9H      -0.196000
     30 C10         -0.8270     0.0410     4.5910 ca         1 T9H      -0.027000
     31 N4          -3.1550    -1.1510     7.1500 nh         1 T9H      -0.353000
     32 C20         -3.4000     0.2190     7.6220 c3         1 T9H       0.119300
     33 C19         -4.5290     0.2030     8.6590 c3         1 T9H       0.232800
     34 N5          -4.1820    -0.7640     9.7110 n3         1 T9H      -0.533500
     35 C14         -3.7910    -2.1230     9.3050 c3         1 T9H       0.232800
     36 C13         -2.6920    -2.0160     8.2420 c3         1 T9H       0.119300
     37 S1          -4.2320    -0.3360    11.3100 sy         1 T9H       1.075200
     38 O1          -3.3580    -1.2270    11.9910 o          1 T9H      -0.575800
     39 O2          -4.0890     1.0770    11.3510 o          1 T9H      -0.575800
     40 C15         -5.8570    -0.6890    11.8950 cc         1 T9H      -0.057600
     41 S2          -7.2110     0.4330    11.8620 ss         1 T9H      -0.193800
     42 C18         -8.2630    -0.7700    12.5970 cc         1 T9H       0.048900
     43 C17         -7.5750    -1.8920    12.8160 cd         1 T9H      -0.164000
     44 C16         -6.2490    -1.8490    12.4240 cd         1 T9H       0.011000
     45 H2           2.8860     0.0460    -1.1680 hn         1 T9H       0.171500
     46 H7           2.5910    -0.8840     1.3610 h1         1 T9H       0.079700
     47 H4           2.5700     1.1210    -3.4980 ha         1 T9H       0.133000
     48 H1          -0.3750    -1.3520    -1.5890 ha         1 T9H       0.133000
     49 H3           1.2980     0.8950    -5.5970 h4         1 T9H      -0.020400
     50 HA          -1.5550    -1.4960    -3.7460 h4         1 T9H      -0.020400
     51 H231         2.2180     2.1320     1.4170 hc         1 T9H       0.022200
     52 H232         3.4890     1.2970     0.5140 hc         1 T9H       0.022200
     53 HB           0.7160     0.8660     2.8190 hn         1 T9H       0.178500
     54 H25          2.5210     2.3380     4.0310 h4         1 T9H       0.137000
     55 H28          5.4800    -0.4030     0.8920 ha         1 T9H       0.096000
     56 H29          7.5970    -1.3270     1.7010 ha         1 T9H       0.104000
     57 H30          8.3130    -0.9530     4.0260 ha         1 T9H       0.102000
     58 H31          6.9180     0.3510     5.5690 ha         1 T9H       0.101000
     59 H6           4.4250     1.7930     5.6630 hn         1 T9H       0.115700
     60 H10         -0.4150     0.9760     4.2330 ha         1 T9H       0.102000
     61 H21         -2.3040    -3.2940     5.8650 ha         1 T9H       0.134000
     62 H11         -2.0050     0.9750     6.0910 ha         1 T9H       0.128000
     63 H201        -3.6890     0.8420     6.7850 h1         1 T9H       0.027950
     64 H202        -2.4980     0.6100     8.0770 h1         1 T9H       0.027950
     65 H131        -2.4710    -3.0020     7.8520 h1         1 T9H       0.027950
     66 H132        -1.8010    -1.5890     8.6870 h1         1 T9H       0.027950
     67 H191        -4.6360     1.1900     9.0940 h1         1 T9H       0.031950
     68 H192        -5.4550    -0.0940     8.1830 h1         1 T9H       0.031950
     69 H141        -3.4130    -2.6640    10.1650 h1         1 T9H       0.031950
     70 H142        -4.6480    -2.6400     8.8910 h1         1 T9H       0.031950
     71 H16         -5.5780    -2.6910    12.5440 ha         1 T9H       0.130000
     72 H18         -9.3090    -0.6210    12.8360 h4         1 T9H       0.148000
     73 H17         -8.0230    -2.7720    13.2620 ha         1 T9H       0.126000
@<TRIPOS>BOND
     1     1     2 2   
     2     2     3 1   
     3     2    10 1   
     4     3     4 1   
     5     3    45 1   
     6     4     5 ar  
     7     4     9 ar  
     8     5     6 ar  
     9     5    47 1   
    10     6     7 ar  
    11     6    49 1   
    12     7     8 ar  
    13     8     9 ar  
    14     8    50 1   
    15     9    48 1   
    16    10    11 1   
    17    10    21 1   
    18    10    46 1   
    19    11    12 1   
    20    11    51 1   
    21    11    52 1   
    22    12    13 1   
    23    12    20 2   
    24    13    14 ar  
    25    13    18 ar  
    26    14    15 ar  
    27    14    55 1   
    28    15    16 ar  
    29    15    56 1   
    30    16    17 ar  
    31    16    57 1   
    32    17    18 ar  
    33    17    58 1   
    34    18    19 1   
    35    19    20 1   
    36    19    59 1   
    37    20    54 1   
    38    21    22 1   
    39    21    53 1   
    40    22    23 2   
    41    22    24 1   
    42    24    25 ar  
    43    24    30 ar  
    44    25    26 1   
    45    25    27 ar  
    46    27    28 ar  
    47    27    61 1   
    48    28    29 ar  
    49    28    31 1   
    50    29    30 ar  
    51    29    62 1   
    52    30    60 1   
    53    31    32 1   
    54    31    36 1   
    55    32    33 1   
    56    32    63 1   
    57    32    64 1   
    58    33    34 1   
    59    33    67 1   
    60    33    68 1   
    61    34    35 1   
    62    34    37 1   
    63    35    36 1   
    64    35    69 1   
    65    35    70 1   
    66    36    65 1   
    67    36    66 1   
    68    37    38 2   
    69    37    39 2   
    70    37    40 1   
    71    40    41 1   
    72    40    44 2   
    73    41    42 1   
    74    42    43 2   
    75    42    72 1   
    76    43    44 1   
    77    43    73 1   
    78    44    71 1   
@<TRIPOS>SUBSTRUCTURE
     1 T9H         1 TEMP              0 ****  ****    0 ROOT
