@<TRIPOS>MOLECULE
molecule
   73    78     1     0     0
SMALL
bcc


@<TRIPOS>ATOM
      1 O4           0.0000     0.0000     0.0000 o          1 T9H      -0.575100
      2 C6           1.2140     0.0000     0.0000 c          1 T9H       0.642100
      3 N2           1.8860     0.0060    -1.1680 ns         1 T9H      -0.477100
      4 C5           1.1920    -0.0990    -2.3740 ca         1 T9H       0.090600
      5 C4           1.6590     0.5350    -3.5250 ca         1 T9H      -0.273300
      6 C3           0.9440     0.4060    -4.6970 ca         1 T9H       0.434200
      7 N1          -0.1670    -0.3050    -4.7370 nb         1 T9H      -0.707000
      8 C2          -0.6410    -0.9200    -3.6700 ca         1 T9H       0.434200
      9 C1           0.0190    -0.8460    -2.4610 ca         1 T9H      -0.273300
     10 C7           1.9670     0.0000     1.3040 c3         1 T9H       0.051700
     11 C23          2.8460     1.2500     1.3850 c3         1 T9H      -0.010200
     12 C24          3.6920     1.1900     2.6310 cc         1 T9H      -0.164400
     13 C27          4.9810     0.5100     2.7780 ca         1 T9H      -0.097800
     14 C28          5.7890    -0.2340     1.9170 ca         1 T9H      -0.082000
     15 C29          6.9710    -0.7490     2.3700 ca         1 T9H      -0.150000
     16 C30          7.3740    -0.5380     3.6810 ca         1 T9H      -0.105000
     17 C31          6.5930     0.1920     4.5480 ca         1 T9H      -0.140000
     18 C26          5.3860     0.7270     4.1080 ca         1 T9H      -0.034200
     19 N6           4.4070     1.4820     4.7120 na         1 T9H      -0.178400
     20 C25          3.4080     1.7530     3.8160 cd         1 T9H      -0.088100
     21 N3           1.0160    -0.0010     2.4180 ns         1 T9H      -0.557900
     22 C8           0.5010    -1.1630     2.8650 c          1 T9H       0.688700
     23 O3           0.8260    -2.2120     2.3420 o          1 T9H      -0.593100
     24 C9          -0.4560    -1.1630     3.9850 ca         1 T9H      -0.212600
     25 C22         -0.9920    -2.3710     4.4510 ca         1 T9H       0.225900
     26 F           -0.6330    -3.5390     3.8740 f          1 T9H      -0.104900
     27 C21         -1.8870    -2.3630     5.5010 ca         1 T9H      -0.213000
     28 C12         -2.2520    -1.1590     6.0910 ca         1 T9H       0.155600
     29 C11         -1.7180     0.0400     5.6260 ca         1 T9H      -0.214000
     30 C10         -0.8270     0.0410     4.5910 ca         1 T9H      -0.051000
     31 N4          -3.1550    -1.1510     7.1500 nh         1 T9H      -0.593000
     32 C20         -3.4000     0.2190     7.6220 c3         1 T9H       0.153800
     33 C19         -4.5290     0.2030     8.6590 c3         1 T9H       0.234300
     34 N5          -4.1820    -0.7640     9.7110 n3         1 T9H      -0.822500
     35 C14         -3.7910    -2.1230     9.3050 c3         1 T9H       0.234300
     36 C13         -2.6920    -2.0160     8.2420 c3         1 T9H       0.153800
     37 S1          -4.2320    -0.3360    11.3100 sy         1 T9H       1.446200
     38 O1          -3.3580    -1.2270    11.9910 o          1 T9H      -0.630800
     39 O2          -4.0890     1.0770    11.3510 o          1 T9H      -0.630800
     40 C15         -5.8570    -0.6890    11.8950 cc         1 T9H      -0.274600
     41 S2          -7.2110     0.4330    11.8620 ss         1 T9H      -0.047800
     42 C18         -8.2630    -0.7700    12.5970 cc         1 T9H      -0.038100
     43 C17         -7.5750    -1.8920    12.8160 cd         1 T9H      -0.185000
     44 C16         -6.2490    -1.8490    12.4240 cd         1 T9H      -0.022000
     45 H2           2.8860     0.0460    -1.1680 hn         1 T9H       0.326500
     46 H7           2.5910    -0.8840     1.3610 h1         1 T9H       0.108700
     47 H4           2.5700     1.1210    -3.4980 ha         1 T9H       0.153500
     48 H1          -0.3750    -1.3520    -1.5890 ha         1 T9H       0.153500
     49 H3           1.2980     0.8950    -5.5970 h4         1 T9H       0.024600
     50 HA          -1.5550    -1.4960    -3.7460 h4         1 T9H       0.024600
     51 H231         2.2180     2.1320     1.4170 hc         1 T9H       0.055700
     52 H232         3.4890     1.2970     0.5140 hc         1 T9H       0.055700
     53 HB           0.7160     0.8660     2.8190 hn         1 T9H       0.316500
     54 H25          2.5210     2.3380     4.0310 h4         1 T9H       0.160000
     55 H28          5.4800    -0.4030     0.8920 ha         1 T9H       0.123000
     56 H29          7.5970    -1.3270     1.7010 ha         1 T9H       0.131000
     57 H30          8.3130    -0.9530     4.0260 ha         1 T9H       0.132000
     58 H31          6.9180     0.3510     5.5690 ha         1 T9H       0.128000
     59 H6           4.4250     1.7930     5.6630 hn         1 T9H       0.298700
     60 H10         -0.4150     0.9760     4.2330 ha         1 T9H       0.129000
     61 H21         -2.3040    -3.2940     5.8650 ha         1 T9H       0.157000
     62 H11         -2.0050     0.9750     6.0910 ha         1 T9H       0.142000
     63 H201        -3.6890     0.8420     6.7850 h1         1 T9H       0.055200
     64 H202        -2.4980     0.6100     8.0770 h1         1 T9H       0.055200
     65 H131        -2.4710    -3.0020     7.8520 h1         1 T9H       0.055200
     66 H132        -1.8010    -1.5890     8.6870 h1         1 T9H       0.055200
     67 H191        -4.6360     1.1900     9.0940 h1         1 T9H       0.066950
     68 H192        -5.4550    -0.0940     8.1830 h1         1 T9H       0.066950
     69 H141        -3.4130    -2.6640    10.1650 h1         1 T9H       0.066950
     70 H142        -4.6480    -2.6400     8.8910 h1         1 T9H       0.066950
     71 H16         -5.5780    -2.6910    12.5440 ha         1 T9H       0.161000
     72 H18         -9.3090    -0.6210    12.8360 h4         1 T9H       0.175000
     73 H17         -8.0230    -2.7720    13.2620 ha         1 T9H       0.155000
@<TRIPOS>BOND
     1     1     2 2
     2     2     3 1
     3     2    10 1
     4     3     4 1
     5     4     5 ar
     6     4     9 ar
     7     5     6 ar
     8     6     7 ar
     9     7     8 ar
    10     8     9 ar
    11    10    11 1
    12    10    21 1
    13    11    12 1
    14    12    13 1
    15    12    20 2
    16    13    14 ar
    17    13    18 ar
    18    14    15 ar
    19    15    16 ar
    20    16    17 ar
    21    17    18 ar
    22    18    19 1
    23    19    20 1
    24    21    22 1
    25    22    23 2
    26    22    24 1
    27    24    25 ar
    28    24    30 ar
    29    25    26 1
    30    25    27 ar
    31    27    28 ar
    32    28    29 ar
    33    28    31 1
    34    29    30 ar
    35    31    32 1
    36    31    36 1
    37    32    33 1
    38    33    34 1
    39    34    35 1
    40    34    37 1
    41    35    36 1
    42    37    38 2
    43    37    39 2
    44    37    40 1
    45    40    41 1
    46    40    44 2
    47    41    42 1
    48    42    43 2
    49    43    44 1
    50     3    45 1
    51    10    46 1
    52     5    47 1
    53     9    48 1
    54     6    49 1
    55     8    50 1
    56    11    51 1
    57    11    52 1
    58    21    53 1
    59    20    54 1
    60    14    55 1
    61    15    56 1
    62    16    57 1
    63    17    58 1
    64    19    59 1
    65    30    60 1
    66    27    61 1
    67    29    62 1
    68    32    63 1
    69    32    64 1
    70    36    65 1
    71    36    66 1
    72    33    67 1
    73    33    68 1
    74    35    69 1
    75    35    70 1
    76    44    71 1
    77    42    72 1
    78    43    73 1
@<TRIPOS>SUBSTRUCTURE
     1 T9H         1 TEMP              0 ****  ****    0 ROOT
