@<TRIPOS>MOLECULE
molecule
   38    40     1     0     0
SMALL
bcc


@<TRIPOS>ATOM
      1 C01          0.0000     0.0000     0.0000 c3         1 T9N       0.229100
      2 N02          1.4640     0.0000     0.0000 nu         1 T9N      -0.885900
      3 C03          2.1550     0.0000     1.1960 cc         1 T9N       0.735300
      4 N04          1.6020    -0.0010     2.3740 nd         1 T9N      -0.786000
      5 C05          2.4050    -0.0020     3.4110 cd         1 T9N       0.510600
      6 C06          1.9040    -0.0020     4.8330 c3         1 T9N      -0.117400
      7 C07          3.7210    -0.0000     3.0960 cc         1 T9N      -0.323900
      8 C08          4.8380    -0.0010     4.0520 ca         1 T9N       0.651800
      9 N09          4.6100    -0.0030     5.3650 nb         1 T9N      -0.749000
     10 C10          5.6150    -0.0050     6.2260 ca         1 T9N       0.915900
     11 N11          5.3370    -0.0070     7.5800 nu         1 T9N      -0.642300
     12 C12          6.3760    -0.1250     8.5070 ca         1 T9N       0.082600
     13 C13          6.2950     0.5290     9.7290 ca         1 T9N      -0.195000
     14 C14          7.3260     0.4090    10.6460 ca         1 T9N       0.125100
     15 O15          7.2490     1.0470    11.8440 oh         1 T9N      -0.520100
     16 C16          8.4390    -0.3640    10.3410 ca         1 T9N      -0.165000
     17 C17          8.5180    -1.0130     9.1240 ca         1 T9N      -0.102000
     18 C18          7.4890    -0.9000     8.2090 ca         1 T9N      -0.128000
     19 N19          6.8830    -0.0040     5.8310 nb         1 T9N      -0.795000
     20 C20          7.2020    -0.0030     4.5490 ca         1 T9N       0.527200
     21 C21          6.1800    -0.0070     3.5940 ca         1 T9N      -0.316600
     22 C22          6.4800    -0.0110     2.1940 cg         1 T9N       0.251800
     23 N23          6.7030    -0.0030     1.0800 n1         1 T9N      -0.353800
     24 S24          3.8580    -0.0060     1.3400 ss         1 T9N      -0.184300
     25 H011        -0.3610     0.9480     0.3790 h1         1 T9N       0.046367
     26 H012        -0.3610    -0.1460    -1.0110 h1         1 T9N       0.046367
     27 H013        -0.3610    -0.8030     0.6320 h1         1 T9N       0.046367
     28 H02          1.9650     0.0030    -0.8670 hn         1 T9N       0.455800
     29 H061         2.2400     0.8970     5.3340 hc         1 T9N       0.062033
     30 H062         0.8210    -0.0330     4.8340 hc         1 T9N       0.062033
     31 H063         2.2900    -0.8710     5.3510 hc         1 T9N       0.062033
     32 H11          5.1020     0.8480     8.0440 hn         1 T9N       0.416800
     33 H13          5.4180     1.1170     9.9710 ha         1 T9N       0.143000
     34 H18          7.5600    -1.4000     7.2510 ha         1 T9N       0.158000
     35 H15          7.6070     1.9150    11.7610 ho         1 T9N       0.419000
     36 H16          9.2460    -0.4580    11.0570 ha         1 T9N       0.141000
     37 H17          9.3870    -1.6150     8.8880 ha         1 T9N       0.136000
     38 H20          8.2430    -0.0020     4.2490 h4         1 T9N       0.041100
@<TRIPOS>BOND
     1     1     2 1
     2     2     3 1
     3     3     4 2
     4     3    24 1
     5     4     5 1
     6     5     6 1
     7     5     7 2
     8     7     8 1
     9     7    24 1
    10     8     9 ar
    11     8    21 ar
    12     9    10 ar
    13    10    11 1
    14    10    19 ar
    15    11    12 1
    16    12    13 ar
    17    12    18 ar
    18    13    14 ar
    19    14    15 1
    20    14    16 ar
    21    16    17 ar
    22    17    18 ar
    23    19    20 ar
    24    20    21 ar
    25    21    22 1
    26    22    23 3
    27     1    25 1
    28     1    26 1
    29     1    27 1
    30     2    28 1
    31     6    29 1
    32     6    30 1
    33     6    31 1
    34    11    32 1
    35    13    33 1
    36    18    34 1
    37    15    35 1
    38    16    36 1
    39    17    37 1
    40    20    38 1
@<TRIPOS>SUBSTRUCTURE
     1 T9N         1 TEMP              0 ****  ****    0 ROOT
