@<TRIPOS>MOLECULE
molecule
   26    26     1     0     0
SMALL
bcc


@<TRIPOS>ATOM
      1 OH1          0.0000     0.0000     0.0000 oh         1 TA2      -0.620800
      2 COH          1.4350     0.0000     0.0000 c3         1 TA2       0.136100
      3 C            1.8910     0.0000     1.4610 c3         1 TA2       0.139400
      4 O            1.4320     1.1970     2.0840 oh         1 TA2      -0.604800
      5 CA           1.9050    -1.2420    -0.7940 c3         1 TA2       0.153800
      6 N            1.2910    -1.3230    -2.1240 nz         1 TA2      -0.799600
      7 CG           3.4230    -1.2980    -0.9180 ca         1 TA2      -0.180300
      8 CD2          4.0380    -2.5290    -1.0040 ca         1 TA2      -0.112000
      9 CE2          5.4280    -2.5800    -1.1180 ca         1 TA2      -0.107000
     10 CZ           6.1700    -1.3980    -1.1440 ca         1 TA2      -0.079000
     11 CE1          5.5210    -0.1670    -1.0560 ca         1 TA2      -0.107000
     12 CD1          4.1320    -0.1150    -0.9420 ca         1 TA2      -0.112000
     13 HOH1        -0.3140     0.8820    -0.1140 ho         1 TA2       0.444000
     14 HOH          1.7950     0.8970    -0.4890 h1         1 TA2       0.061700
     15 H1           2.9720    -0.0410     1.5050 h1         1 TA2       0.048700
     16 H2           1.4730    -0.8590     1.9730 h1         1 TA2       0.048700
     17 HO           1.7280     1.2200     2.9790 ho         1 TA2       0.435000
     18 HA           1.5930    -2.1180    -0.2390 hx         1 TA2       0.117700
     19 HN1          0.3060    -1.4680    -2.0270 hn         1 TA2       0.456467
     20 HN2          1.6930    -2.0860    -2.6310 hn         1 TA2       0.456467
     21 HD2          3.4530    -3.4410    -0.9820 ha         1 TA2       0.141500
     22 HE2          5.9310    -3.5370    -1.1860 ha         1 TA2       0.160500
     23 HZ           7.2490    -1.4380    -1.2330 ha         1 TA2       0.163000
     24 HE1          6.0970     0.7500    -1.0770 ha         1 TA2       0.160500
     25 HD1          3.6190     0.8370    -0.8730 ha         1 TA2       0.141500
     26 HN3          1.4130    -0.4510    -2.6000 hn         1 TA2       0.456467
@<TRIPOS>BOND
     1     1     2 1
     2     1    13 1
     3     2     3 1
     4     2     5 1
     5     2    14 1
     6     3     4 1
     7     3    15 1
     8     3    16 1
     9     4    17 1
    10     5     6 1
    11     5     7 1
    12     5    18 1
    13     6    19 1
    14     6    20 1
    15     7     8 ar
    16     7    12 ar
    17     8     9 ar
    18     8    21 1
    19     9    10 ar
    20     9    22 1
    21    10    11 ar
    22    10    23 1
    23    11    12 ar
    24    11    24 1
    25    12    25 1
    26    26     6 1
@<TRIPOS>SUBSTRUCTURE
     1 TA2         1 TEMP              0 ****  ****    0 ROOT
