@<TRIPOS>MOLECULE
TA2
   26    26     1     0     0
SMALL
bcc


@<TRIPOS>ATOM
      1 OH1          0.0000     0.0000     0.0000 oh         1 TA2      -0.605800
      2 COH          1.4350     0.0000     0.0000 c3         1 TA2       0.179100
      3 C            1.8910     0.0000     1.4610 c3         1 TA2       0.215400
      4 O            1.4320     1.1970     2.0840 oh         1 TA2      -0.588800
      5 CA           1.9050    -1.2420    -0.7940 c3         1 TA2      -0.018200
      6 N            1.2910    -1.3230    -2.1240 nz         1 TA2       0.086400
      7 CG           3.4230    -1.2980    -0.9180 ca         1 TA2      -0.193300
      8 CD2          4.0380    -2.5290    -1.0040 ca         1 TA2      -0.084500
      9 CE2          5.4280    -2.5800    -1.1180 ca         1 TA2      -0.071000
     10 CZ           6.1700    -1.3980    -1.1440 ca         1 TA2      -0.045000
     11 CE1          5.5210    -0.1670    -1.0560 ca         1 TA2      -0.071000
     12 CD1          4.1320    -0.1150    -0.9420 ca         1 TA2      -0.084500
     13 HOH1        -0.3140     0.8820    -0.1140 ho         1 TA2       0.434000
     14 HOH          1.7950     0.8970    -0.4890 h1         1 TA2       0.029700
     15 H1           2.9720    -0.0410     1.5050 h1         1 TA2       0.010200
     16 H2           1.4730    -0.8590     1.9730 h1         1 TA2       0.010200
     17 HO           1.7280     1.2200     2.9790 ho         1 TA2       0.421000
     18 HA           1.5930    -2.1180    -0.2390 hx         1 TA2       0.090700
     19 HN1          0.3060    -1.4680    -2.0270 hn         1 TA2       0.224133
     20 HN2          1.6930    -2.0860    -2.6310 hn         1 TA2       0.224133
     21 HD2          3.4530    -3.4410    -0.9820 ha         1 TA2       0.116500
     22 HE2          5.9310    -3.5370    -1.1860 ha         1 TA2       0.126000
     23 HZ           7.2490    -1.4380    -1.2330 ha         1 TA2       0.126000
     24 HE1          6.0970     0.7500    -1.0770 ha         1 TA2       0.126000
     25 HD1          3.6190     0.8370    -0.8730 ha         1 TA2       0.116500
     26 HN3          1.4130    -0.4510    -2.6000 hn         1 TA2       0.224133
@<TRIPOS>BOND
     1     1     2 1   
     2     1    13 1   
     3     2     3 1   
     4     2     5 1   
     5     2    14 1   
     6     3     4 1   
     7     3    15 1   
     8     3    16 1   
     9     4    17 1   
    10     5     6 1   
    11     5     7 1   
    12     5    18 1   
    13     6    19 1   
    14     6    20 1   
    15     6    26 1   
    16     7     8 ar  
    17     7    12 ar  
    18     8     9 ar  
    19     8    21 1   
    20     9    10 ar  
    21     9    22 1   
    22    10    11 ar  
    23    10    23 1   
    24    11    12 ar  
    25    11    24 1   
    26    12    25 1   
@<TRIPOS>SUBSTRUCTURE
     1 TA2         1 TEMP              0 ****  ****    0 ROOT
