@<TRIPOS>MOLECULE
TA5
   12    12     1     0     0
SMALL
bcc


@<TRIPOS>ATOM
      1 N           0.1290   -0.3290   -0.0590 nc        1 TA5     -0.492800
      2 CA          1.4670   -0.0590   -0.0460 cd        1 TA5      0.165300
      3 CB          2.3880   -0.0570   -1.2100 c3        1 TA5      0.115100
      4 OG          2.2290   -1.1730   -2.0580 oh        1 TA5     -0.587800
      5 NT          0.6950    0.1510    2.0810 nc        1 TA5     -0.489800
      6 C           1.8260    0.2490    1.3380 cd        1 TA5      0.208900
      7 N2         -0.2620   -0.1890    1.2110 na        1 TA5      0.140900
      8 H2         -1.2090   -0.3470    1.4940 hn        1 TA5      0.350700
      9 HBC1        2.2470    0.8970   -1.7920 h1        1 TA5      0.060200
     10 HBC2        3.4520   -0.1250   -0.8510 h1        1 TA5      0.060200
     11 H           2.8020    0.5100    1.7410 h4        1 TA5      0.059100
     12 HG          1.3210   -1.1700   -2.3880 ho        1 TA5      0.412000
@<TRIPOS>BOND
     1    1    2 2   
     2    1    7 1   
     3    2    3 1   
     4    2    6 1   
     5    3    4 1   
     6    3    9 1   
     7    3   10 1   
     8    4   12 1   
     9    5    6 2   
    10    5    7 1   
    11    6   11 1   
    12    7    8 1   
@<TRIPOS>SUBSTRUCTURE
     1 TA5         1 TEMP              0 ****  ****    0 ROOT
