@<TRIPOS>MOLECULE
molecule
   12    12     1     0     0
SMALL
bcc


@<TRIPOS>ATOM
      1 N            0.0000     0.0000     0.0000 nc         1 TA5      -0.449800
      2 CA           1.3360     0.0000     0.0000 cd         1 TA5       0.196300
      3 CB           2.0920    -0.0000    -1.2600 c3         1 TA5       0.119100
      4 OG           2.3460    -1.3410    -1.6840 oh         1 TA5      -0.601800
      5 NT           0.7830     0.0010     2.1710 nc         1 TA5      -0.463800
      6 C            1.8110     0.0000     1.3190 cd         1 TA5       0.214900
      7 N2          -0.2540    -0.0000     1.3190 na         1 TA5       0.120900
      8 H2          -1.1960    -0.0000     1.6590 hn         1 TA5       0.336700
      9 HBC1         3.0340     0.5140    -1.1130 h1         1 TA5       0.035200
     10 HBC2         1.5180     0.5130    -2.0220 h1         1 TA5       0.035200
     11 H            2.8560     0.0000     1.6040 h4         1 TA5       0.051100
     12 HG           2.8580    -1.3290    -2.4750 ho         1 TA5       0.406000
@<TRIPOS>BOND
     1     1     2 2
     2     1     7 1
     3     2     3 1
     4     2     6 1
     5     3     4 1
     6     3     9 1
     7     3    10 1
     8     4    12 1
     9     5     6 2
    10     5     7 1
    11     6    11 1
    12     7     8 1
@<TRIPOS>SUBSTRUCTURE
     1 TA5         1 TEMP              0 ****  ****    0 ROOT
