@<TRIPOS>MOLECULE
TA6
   27    27     1     0     0
SMALL
bcc


@<TRIPOS>ATOM
      1 O1          0.0830    0.9140   -0.1810 oh        1 TA6     -0.640800
      2 C1          1.4310    0.4780   -0.2270 c3        1 TA6      0.159400
      3 C2          1.9660    0.0010    1.1220 c3        1 TA6      0.283600
      4 O2          1.7060    1.0080    2.0790 oh        1 TA6     -0.654800
      5 C3          3.4440   -0.4400    1.1310 c3        1 TA6      0.014100
      6 O3          4.3060    0.6520    1.3210 oh        1 TA6     -0.640800
      7 C4          3.4700   -1.4260    2.3820 c3        1 TA6      0.344800
      8 O4          3.7580   -0.7410    3.4730 o         1 TA6     -0.878500
      9 C5          2.0230   -2.0250    2.3200 c3        1 TA6      0.047100
     10 O5          1.1900   -1.1100    1.5680 os        1 TA6     -0.473600
     11 C6          1.3720   -2.2450    3.6880 c3        1 TA6      0.186400
     12 O6          1.5090   -3.5820    4.0680 os        1 TA6     -0.593200
     13 P           2.2170   -3.8750    5.5340 p5        1 TA6      1.439800
     14 O1P         2.2170   -5.3420    5.7380 o         1 TA6     -0.858000
     15 O2P         3.7260   -3.3890    5.1880 oh        1 TA6     -0.811400
     16 O3P         1.6270   -2.9250    6.5060 o         1 TA6     -0.858000
     17 H1         -0.2310    0.7680    0.7210 ho        1 TA6      0.429000
     18 H1C1        1.4850   -0.3640   -0.9670 h1        1 TA6      0.029700
     19 H1C2        2.0480    1.3450   -0.5790 h1        1 TA6      0.029700
     20 H2          2.1310    0.7030    2.9030 ho        1 TA6      0.455000
     21 H3          3.7290   -0.9230    0.1680 h1        1 TA6      0.027700
     22 HA          4.4400    0.7240    2.2880 ho        1 TA6      0.434000
     23 H4          4.1960   -2.2600    2.1470 h1        1 TA6     -0.041300
     24 HB          3.7940   -2.5290    4.7690 ho        1 TA6      0.469000
     25 H5          2.0190   -2.9840    1.7380 h1        1 TA6      0.031700
     26 H6C1        0.2720   -2.0070    3.6010 h1        1 TA6      0.033200
     27 H6C2        1.8370   -1.5630    4.4540 h1        1 TA6      0.033200
@<TRIPOS>BOND
     1    1    2 1   
     2    1   17 1   
     3    2    3 1   
     4    2   18 1   
     5    2   19 1   
     6    3    4 1   
     7    3    5 1   
     8    3   10 1   
     9    4   20 1   
    10    5    6 1   
    11    5    7 1   
    12    5   21 1   
    13    6   22 1   
    14    7    8 1   
    15    7    9 1   
    16    7   23 1   
    17    9   10 1   
    18    9   11 1   
    19    9   25 1   
    20   11   12 1   
    21   11   26 1   
    22   11   27 1   
    23   12   13 1   
    24   13   14 1   
    25   13   15 1   
    26   13   16 1   
    27   15   24 1   
@<TRIPOS>SUBSTRUCTURE
     1 TA6         1 TEMP              0 ****  ****    0 ROOT
