@<TRIPOS>MOLECULE
molecule
   27    27     1     0     0
SMALL
bcc


@<TRIPOS>ATOM
      1 O1           0.0000     0.0000     0.0000 oh         1 TA6      -0.583800
      2 C1           1.4290     0.0000     0.0000 c3         1 TA6       0.111400
      3 C2           1.9390     0.0000     1.4420 c3         1 TA6       0.347600
      4 O2           1.4540     1.1560     2.1280 oh         1 TA6      -0.586800
      5 C3           3.4830    -0.0040     1.4520 c3         1 TA6       0.096100
      6 O3           4.0010     1.3030     1.7060 oh         1 TA6      -0.561800
      7 C4           3.8010    -0.9650     2.6330 c3         1 TA6       0.098100
      8 O4           3.7650    -0.2710     3.8820 oh         1 TA6      -0.537800
      9 C5           2.6290    -1.9710     2.5190 c3         1 TA6       0.133100
     10 O5           1.4970    -1.1850     2.1150 os         1 TA6      -0.369600
     11 C6           2.3610    -2.6320     3.8730 c3         1 TA6       0.166400
     12 O6           1.3120    -3.5930     3.7340 os         1 TA6      -0.534200
     13 P            1.0830    -4.2450     5.1890 p5         1 TA6       1.156900
     14 O1P         -0.1760    -5.2460     5.1350 o          1 TA6      -0.911833
     15 O2P          2.4010    -5.0630     5.6230 o          1 TA6      -0.911833
     16 O3P          0.8200    -3.1730     6.1730 o          1 TA6      -0.911833
     17 H1          -0.3140     0.0300    -0.8880 ho         1 TA6       0.381000
     18 H1C1         1.7900    -0.8840    -0.5110 h1         1 TA6       0.013200
     19 H1C2         1.7900     0.8850    -0.5110 h1         1 TA6       0.013200
     20 H2           0.5360     1.0500     2.3120 ho         1 TA6       0.423000
     21 H3           3.8690    -0.4040     0.5220 h1         1 TA6       0.025700
     22 HA           4.7260     1.4720     1.1270 ho         1 TA6       0.369000
     23 H4           4.7520    -1.4610     2.4820 h1         1 TA6       0.028700
     24 HB           4.6380    -0.2160     4.2360 ho         1 TA6       0.384000
     25 H5           2.8510    -2.7190     1.7680 h1         1 TA6       0.042700
     26 H6C1         3.2600    -3.1260     4.2180 h1         1 TA6       0.059700
     27 H6C2         2.0650    -1.8760     4.5910 h1         1 TA6       0.059700
@<TRIPOS>BOND
     1     1     2 1
     2     1    17 1
     3     2     3 1
     4     2    18 1
     5     2    19 1
     6     3     4 1
     7     3     5 1
     8     3    10 1
     9     4    20 1
    10     5     6 1
    11     5     7 1
    12     5    21 1
    13     6    22 1
    14     7     8 1
    15     7     9 1
    16     7    23 1
    17     8    24 1
    18     9    10 1
    19     9    11 1
    20     9    25 1
    21    11    12 1
    22    11    26 1
    23    11    27 1
    24    12    13 1
    25    13    14 1
    26    13    15 1
    27    13    16 1
@<TRIPOS>SUBSTRUCTURE
     1 TA6         1 TEMP              0 ****  ****    0 ROOT
