@<TRIPOS>MOLECULE
TA7
   26    26     1     0     0
SMALL
bcc


@<TRIPOS>ATOM
      1 CAA         0.0860   -0.1010   -0.1320 c3        1 TA7      0.110700
      2 OAB         5.1360   -0.2160    5.2000 o         1 TA7     -0.516100
      3 OAC         4.6910    1.6590    7.6750 o         1 TA7     -0.426100
      4 FAD         4.4700   -0.1180    9.7470 f         1 TA7     -0.225633
      5 FAE         3.8640   -1.6070    8.2780 f         1 TA7     -0.225633
      6 FAF         2.3860   -0.2610    9.1320 f         1 TA7     -0.225633
      7 CAG         1.2260    0.0500    2.4310 ca        1 TA7     -0.196000
      8 CAH         3.4040   -0.2650    1.3750 ca        1 TA7     -0.196000
      9 CAI         1.8490    0.1180    3.6740 ca        1 TA7     -0.044000
     10 CAJ         4.0060   -0.1990    2.6220 ca        1 TA7     -0.044000
     11 CAK         3.1050    0.4830    6.2650 c3        1 TA7     -0.280400
     12 OAL         1.5000   -0.2180    0.0020 os        1 TA7     -0.318900
     13 CAM         3.9380    0.0600    5.0790 c         1 TA7      0.598700
     14 CAN         3.9180    0.7300    7.4960 c         1 TA7      0.562100
     15 CAO         2.0040   -0.1390    1.2800 ca        1 TA7      0.162100
     16 CAP         3.2390   -0.0030    3.7850 ca        1 TA7     -0.218600
     17 CAQ         3.6720   -0.3030    8.6520 c3        1 TA7      0.526900
     18 HAA        -0.4310   -0.9250    0.4150 h1        1 TA7      0.049700
     19 HAAA       -0.0760   -0.1960   -1.2360 h1        1 TA7      0.049700
     20 HAAB       -0.2620    0.8950    0.2340 h1        1 TA7      0.049700
     21 HAG         0.1330    0.1450    2.3650 ha        1 TA7      0.151500
     22 HAH         3.9970   -0.4160    0.4610 ha        1 TA7      0.151500
     23 HAI         1.2250    0.2620    4.5690 ha        1 TA7      0.147000
     24 HAJ         5.1010   -0.3010    2.7160 ha        1 TA7      0.147000
     25 HAK         2.3410   -0.3160    6.4680 hc        1 TA7      0.104700
     26 HAKA        2.5640    1.4360    6.0080 hc        1 TA7      0.104700
@<TRIPOS>BOND
     1    1   12 1   
     2    1   18 1   
     3    1   19 1   
     4    1   20 1   
     5    2   13 2   
     6    3   14 2   
     7    4   17 1   
     8    5   17 1   
     9    6   17 1   
    10    7    9 ar  
    11    7   15 ar  
    12    7   21 1   
    13    8   10 ar  
    14    8   15 ar  
    15    8   22 1   
    16    9   16 ar  
    17    9   23 1   
    18   10   16 ar  
    19   10   24 1   
    20   11   13 1   
    21   11   14 1   
    22   11   25 1   
    23   11   26 1   
    24   12   15 1   
    25   13   16 1   
    26   14   17 1   
@<TRIPOS>SUBSTRUCTURE
     1 TA7         1 TEMP              0 ****  ****    0 ROOT
