@<TRIPOS>MOLECULE
molecule
   26    26     1     0     0
SMALL
bcc


@<TRIPOS>ATOM
      1 CAA          0.0000     0.0000     0.0000 c3         1 TA7       0.126700
      2 OAB          5.1760     0.0320     5.0480 o          1 TA7      -0.489100
      3 OAC          5.2580     0.0390     7.2860 o          1 TA7      -0.397100
      4 FAD          3.9020     1.1730     9.5150 f          1 TA7      -0.214300
      5 FAE          3.9290    -1.1120     9.5220 f          1 TA7      -0.214300
      6 FAF          2.0870     0.0070     8.7610 f          1 TA7      -0.214300
      7 CAG          1.2830    -0.0000     2.3740 ca         1 TA7      -0.205000
      8 CAH          3.4330     0.0000     1.2800 ca         1 TA7      -0.205000
      9 CAI          1.9010     0.0000     3.5980 ca         1 TA7      -0.039500
     10 CAJ          4.0610     0.0110     2.5000 ca         1 TA7      -0.039500
     11 CAK          3.1440     0.0120     6.2470 c3         1 TA7      -0.270400
     12 OAL          1.4290     0.0000     0.0000 os         1 TA7      -0.320900
     13 CAM          3.9650     0.0180     4.9840 c          1 TA7       0.576700
     14 CAN          4.0610     0.0260     7.4430 c          1 TA7       0.510100
     15 CAO          2.0440     0.0000     1.2090 ca         1 TA7       0.175100
     16 CAP          3.3000     0.0060     3.6750 ca         1 TA7      -0.223600
     17 CAQ          3.4850     0.0240     8.8360 c3         1 TA7       0.526900
     18 HAA         -0.3610     0.8840     0.5110 h1         1 TA7       0.045033
     19 HAAA        -0.3610     0.0010    -1.0210 h1         1 TA7       0.045033
     20 HAAB        -0.3610    -0.8850     0.5100 h1         1 TA7       0.045033
     21 HAG          0.2020    -0.0030     2.3130 ha         1 TA7       0.146000
     22 HAH          4.0210     0.0020     0.3700 ha         1 TA7       0.146000
     23 HAI          1.3070    -0.0020     4.5040 ha         1 TA7       0.146000
     24 HAJ          5.1430     0.0130     2.5540 ha         1 TA7       0.146000
     25 HAK          2.5290    -0.8790     6.2740 hc         1 TA7       0.099700
     26 HAKA         2.5090     0.8900     6.2690 hc         1 TA7       0.099700
@<TRIPOS>BOND
     1     1    12 1
     2     1    18 1
     3     1    19 1
     4     1    20 1
     5     2    13 2
     6     3    14 2
     7     4    17 1
     8    17     5 1
     9    17     6 1
    10    15     7 ar
    11     7     9 ar
    12     7    21 1
    13     8    10 ar
    14     8    15 ar
    15     8    22 1
    16    16     9 ar
    17     9    23 1
    18    10    16 ar
    19    10    24 1
    20    13    11 1
    21    14    11 1
    22    11    25 1
    23    11    26 1
    24    12    15 1
    25    16    13 1
    26    14    17 1
@<TRIPOS>SUBSTRUCTURE
     1 TA7         1 TEMP              0 ****  ****    0 ROOT
