@<TRIPOS>MOLECULE
molecule
   34    33     1     0     0
SMALL
bcc


@<TRIPOS>ATOM
      1 O42          0.0000     0.0000     0.0000 o          1 TA8      -0.916800
      2 O41          1.9470     0.0010    -1.0460 o          1 TA8      -0.916800
      3 C4           1.3420     0.0000     0.0000 c          1 TA8       0.898600
      4 C41          2.0960     0.0000     1.3050 c3         1 TA8      -0.176400
      5 C32          3.5990     0.0010     1.0250 c3         1 TA8      -0.033400
      6 C3           4.0950     1.2880     3.0860 c          1 TA8       0.901600
      7 O31          3.3670     2.1200     2.6010 o          1 TA8      -0.889300
      8 O32          4.6650     1.5100     4.2810 o          1 TA8      -0.889300
      9 C22          5.8640    -0.1250     2.0730 c3         1 TA8      -0.019400
     10 C2           6.2300    -1.5390     4.0780 c          1 TA8       0.926600
     11 O21          5.4310    -2.2800     3.5560 o          1 TA8      -0.898800
     12 O22          6.7710    -1.8620     5.2630 o          1 TA8      -0.898800
     13 C10          8.6020     1.0560     5.2060 c3         1 TA8      -0.056100
     14 C11          8.8800    -0.2510     4.4610 c3         1 TA8      -0.181700
     15 C12          8.1250    -0.2500     3.1300 c3         1 TA8      -0.026400
     16 C1          10.3590    -0.3740     4.1990 c          1 TA8       0.902600
     17 O12         11.2230    -0.3960     5.2260 o          1 TA8      -0.917800
     18 O11         10.7670    -0.4540     3.0650 o          1 TA8      -0.917800
     19 C21          6.6190    -0.2510     3.3990 c3         1 TA8      -0.196700
     20 C31          4.3650     0.0010     2.3510 c3         1 TA8      -0.177700
     21 H411         1.8350    -0.8850     1.8730 hc         1 TA8       0.045700
     22 H412         1.8330     0.8840     1.8740 hc         1 TA8       0.045700
     23 H321         3.8600     0.8860     0.4580 hc         1 TA8       0.013700
     24 H322         3.8620    -0.8830     0.4570 hc         1 TA8       0.013700
     25 H31          4.0380    -0.8360     2.9560 hc         1 TA8       0.088700
     26 H221         6.0470    -1.0050     1.4690 hc         1 TA8      -0.004800
     27 H222         6.2090     0.7550     1.5440 hc         1 TA8      -0.004800
     28 H21          6.3660     0.5860     4.0400 hc         1 TA8       0.123700
     29 H103         8.0610     0.8430     6.1200 hc         1 TA8       0.008700
     30 H11          8.5500    -1.0880     5.0640 hc         1 TA8       0.125700
     31 H121         8.3910     0.6340     2.5640 hc         1 TA8       0.004700
     32 H122         8.3900    -1.1350     2.5640 hc         1 TA8       0.004700
     33 H101         9.5400     1.5420     5.4460 hc         1 TA8       0.008700
     34 H102         8.0070     1.7090     4.5790 hc         1 TA8       0.008700
@<TRIPOS>BOND
     1     1     3 1
     2     2     3 1
     3     3     4 1
     4     4     5 1
     5     5    20 1
     6     6     7 1
     7     6     8 1
     8     6    20 1
     9     9    19 1
    10     9    20 1
    11    10    11 1
    12    10    12 1
    13    10    19 1
    14    13    14 1
    15    14    15 1
    16    14    16 1
    17    15    19 1
    18    16    17 1
    19    16    18 1
    20     4    21 1
    21     4    22 1
    22     5    23 1
    23     5    24 1
    24    20    25 1
    25     9    26 1
    26     9    27 1
    27    19    28 1
    28    13    33 1
    29    13    34 1
    30    13    29 1
    31    14    30 1
    32    15    31 1
    33    15    32 1
@<TRIPOS>SUBSTRUCTURE
     1 TA8         1 TEMP              0 ****  ****    0 ROOT
