@<TRIPOS>MOLECULE
TA8
   34    33     1     0     0
SMALL
bcc


@<TRIPOS>ATOM
      1 O42        -0.1860   -0.5730    0.9770 o         1 TA8     -0.908800
      2 O41         1.2530   -0.3860   -0.6820 o         1 TA8     -0.908800
      3 C4          0.9930   -0.3010    0.5590 c         1 TA8      0.899600
      4 C41         2.0280    0.1600    1.5810 c3        1 TA8     -0.164400
      5 C32         3.4780   -0.0990    1.2290 c3        1 TA8     -0.040400
      6 C3          4.4390    1.9440    2.3240 c         1 TA8      0.916600
      7 O31         4.9420    2.6150    1.3680 o         1 TA8     -0.896800
      8 O32         3.8920    2.5360    3.3100 o         1 TA8     -0.896800
      9 C22         5.8640   -0.1500    2.0410 c3        1 TA8     -0.050400
     10 C2          6.5920   -2.1240    3.4770 c         1 TA8      0.916600
     11 O21         6.8870   -2.9130    2.5250 o         1 TA8     -0.895800
     12 O22         6.2610   -2.5830    4.6180 o         1 TA8     -0.895800
     13 C10         8.3980    0.8300    5.4700 c3        1 TA8     -0.061100
     14 C11         8.8880   -0.2170    4.4890 c3        1 TA8     -0.158700
     15 C12         8.1150   -0.1510    3.1790 c3        1 TA8     -0.037400
     16 C1         10.4110   -0.0510    4.3360 c         1 TA8      0.906600
     17 O12        11.1460   -0.2870    5.3550 o         1 TA8     -0.902300
     18 O11        10.9440    0.3240    3.2470 o         1 TA8     -0.902300
     19 C21         6.6510   -0.5940    3.2790 c3        1 TA8     -0.159700
     20 C31         4.4580    0.4010    2.2970 c3        1 TA8     -0.158700
     21 H411        1.8880    1.2640    1.7290 hc        1 TA8      0.029700
     22 H412        1.7900   -0.3350    2.5590 hc        1 TA8      0.029700
     23 H321        3.6220   -1.2020    1.0820 hc        1 TA8      0.025700
     24 H322        3.7140    0.4030    0.2550 hc        1 TA8      0.025700
     25 H31         4.1000    0.0410    3.3000 hc        1 TA8      0.038700
     26 H221        5.7980   -1.0340    1.3500 hc        1 TA8      0.031200
     27 H222        6.4410    0.6450    1.4960 hc        1 TA8      0.031200
     28 H21         6.1910   -0.1190    4.1870 hc        1 TA8      0.039700
     29 H103        8.4580    1.8490    5.0170 hc        1 TA8      0.008033
     30 H11         8.7130   -1.2350    4.9380 hc        1 TA8      0.059700
     31 H121        8.1620    0.9010    2.7930 hc        1 TA8      0.030200
     32 H122        8.6360   -0.8040    2.4300 hc        1 TA8      0.030200
     33 H101        7.3380    0.6340    5.7580 hc        1 TA8      0.008033
     34 H102        9.0310    0.8140    6.3910 hc        1 TA8      0.008033
@<TRIPOS>BOND
     1    1    3 1   
     2    2    3 1   
     3    3    4 1   
     4    4    5 1   
     5    4   21 1   
     6    4   22 1   
     7    5   20 1   
     8    5   23 1   
     9    5   24 1   
    10    6    7 1   
    11    6    8 1   
    12    6   20 1   
    13    9   19 1   
    14    9   20 1   
    15    9   26 1   
    16    9   27 1   
    17   10   11 1   
    18   10   12 1   
    19   10   19 1   
    20   13   14 1   
    21   13   29 1   
    22   13   33 1   
    23   13   34 1   
    24   14   15 1   
    25   14   16 1   
    26   14   30 1   
    27   15   19 1   
    28   15   31 1   
    29   15   32 1   
    30   16   17 1   
    31   16   18 1   
    32   19   28 1   
    33   20   25 1   
@<TRIPOS>SUBSTRUCTURE
     1 TA8         1 TEMP              0 ****  ****    0 ROOT
