@<TRIPOS>MOLECULE
molecule
   50    53     1     0     0
SMALL
bcc


@<TRIPOS>ATOM
      1 CAK          0.0000     0.0000     0.0000 ca         1 TA9      -0.112600
      2 CAQ          1.4820     0.0000     0.0000 c          1 TA9       0.580300
      3 OBB          2.2050     0.0010    -0.9760 o          1 TA9      -0.430100
      4 CAN          1.9170     0.0000     1.4170 ca         1 TA9      -0.167600
      5 CAS          3.1730    -0.0010     2.0110 ca         1 TA9      -0.060000
      6 CAH          3.2850    -0.0020     3.3910 ca         1 TA9      -0.135000
      7 CAC          2.1510    -0.0030     4.1800 ca         1 TA9      -0.107000
      8 CAR          0.8920    -0.0020     3.6010 ca         1 TA9      -0.112000
      9 CAM          0.7640    -0.0010     2.2190 cp         1 TA9      -0.025000
     10 CAL         -0.4310     0.0000     1.3340 cp         1 TA9      -0.022000
     11 CAO         -1.7920     0.0000     1.6150 ca         1 TA9      -0.098000
     12 CAT         -2.7190    -0.0000     0.5860 ca         1 TA9      -0.113000
     13 CAP         -2.3050    -0.0010    -0.7310 ca         1 TA9      -0.120000
     14 CAJ         -0.9430    -0.0050    -1.0370 ca         1 TA9      -0.077600
     15 CAI         -0.4970    -0.0110    -2.4490 c          1 TA9       0.655700
     16 OAZ          0.6900    -0.0120    -2.7110 o          1 TA9      -0.558100
     17 NAV         -1.4060    -0.0150    -3.4420 ns         1 TA9      -0.588900
     18 CAD         -0.9650    -0.0220    -4.8400 c3         1 TA9       0.123000
     19 CAA         -2.1870    -0.0250    -5.7600 c3         1 TA9       0.145500
     20 NAW         -3.0550     1.1110    -5.4260 n7         1 TA9      -0.797200
     21 CAE         -4.2630     1.1190    -6.2610 c3         1 TA9       0.157500
     22 CAU         -5.1590     2.2900    -5.8510 c3         1 TA9      -0.088100
     23 CAG         -3.8670     1.2720    -7.7320 c3         1 TA9       0.142100
     24 OAX         -3.1720     2.5070    -7.9130 oh         1 TA9      -0.572800
     25 CAF         -2.9550     0.1080    -8.1320 c3         1 TA9       0.115100
     26 OAY         -2.5370     0.2750    -9.4880 oh         1 TA9      -0.596800
     27 CAB         -1.7290     0.0920    -7.2150 c3         1 TA9       0.156100
     28 OBA         -0.9000    -1.0230    -7.5470 oh         1 TA9      -0.610800
     29 HAS          4.0650    -0.0010     1.3950 ha         1 TA9       0.147000
     30 HAH          4.2650    -0.0020     3.8540 ha         1 TA9       0.137000
     31 HAC          2.2470    -0.0030     5.2600 ha         1 TA9       0.135000
     32 HAR          0.0080    -0.0030     4.2260 ha         1 TA9       0.133000
     33 HAO         -2.1300     0.0000     2.6440 ha         1 TA9       0.137000
     34 HAT         -3.7770     0.0030     0.8160 ha         1 TA9       0.136000
     35 HAP         -3.0380    -0.0010    -1.5280 ha         1 TA9       0.128000
     36 HAV         -2.3820    -0.0640    -3.2260 hn         1 TA9       0.303500
     37 HAD1        -0.3700    -0.9070    -5.0270 h1         1 TA9       0.070700
     38 HAD2        -0.3690     0.8620    -5.0350 h1         1 TA9       0.070700
     39 HAA         -2.7390    -0.9490    -5.6310 h1         1 TA9       0.028700
     40 HAW         -3.3170     1.0580    -4.4610 hn         1 TA9       0.354800
     41 HAB         -1.1720     1.0130    -7.3440 h1         1 TA9       0.082700
     42 HAE         -4.7980     0.1870    -6.1280 h1         1 TA9       0.020700
     43 HAU1        -4.5720     3.2000    -5.8200 hc         1 TA9       0.044367
     44 HAU2        -5.5790     2.0980    -4.8710 hc         1 TA9       0.044367
     45 HAU3        -5.9600     2.4020    -6.5720 hc         1 TA9       0.044367
     46 HAG         -4.7580     1.2590    -8.3470 h1         1 TA9       0.035700
     47 HAX         -3.5600     2.9830    -8.6290 ho         1 TA9       0.401000
     48 HAF         -3.4950    -0.8250    -8.0270 h1         1 TA9       0.043700
     49 HAY         -2.9660    -0.3660   -10.0310 ho         1 TA9       0.403000
     50 HBA         -0.1290    -0.7200    -7.9960 ho         1 TA9       0.416000
@<TRIPOS>BOND
     1     1     2 1
     2     1    10 ar
     3     1    14 ar
     4     2     3 2
     5     2     4 1
     6     4     5 ar
     7     4     9 ar
     8     5     6 ar
     9     6     7 ar
    10     7     8 ar
    11     8     9 ar
    12     9    10 1
    13    10    11 ar
    14    11    12 ar
    15    12    13 ar
    16    13    14 ar
    17    14    15 1
    18    15    16 2
    19    15    17 1
    20    17    18 1
    21    18    19 1
    22    19    20 1
    23    19    27 1
    24    20    21 1
    25    21    22 1
    26    21    23 1
    27    23    24 1
    28    23    25 1
    29    25    26 1
    30    25    27 1
    31    27    28 1
    32     5    29 1
    33     6    30 1
    34     7    31 1
    35     8    32 1
    36    11    33 1
    37    12    34 1
    38    13    35 1
    39    17    36 1
    40    18    37 1
    41    18    38 1
    42    19    39 1
    43    20    40 1
    44    27    41 1
    45    21    42 1
    46    22    43 1
    47    22    44 1
    48    22    45 1
    49    23    46 1
    50    24    47 1
    51    25    48 1
    52    26    49 1
    53    28    50 1
@<TRIPOS>SUBSTRUCTURE
     1 TA9         1 TEMP              0 ****  ****    0 ROOT
